#	Name:			1_01_002-p0
#	Creating user name:	Mariana
#	Creation time:		Wed Jan 11 14:04:16 2017

#	Modifying user name:	Mariana
#	Modification time:	Wed Jan 11 14:04:16 2017

@<TRIPOS>MOLECULE
1_01_002-p0
   43    45     1    15     0
SMALL
NO_CHARGES


@<TRIPOS>ATOM
      1 C          22.8751   40.7508   63.8319 C.ar      1 UNN         0.0000 
      2 C1         21.6321   41.1592   63.3052 C.ar      1 UNN         0.0000 
      3 C2         21.5330   42.3588   62.5753 C.ar      1 UNN         0.0000 
      4 C3         22.6996   43.1095   62.3571 C.ar      1 UNN         0.0000 
      5 C4         23.9420   42.7135   62.8606 C.ar      1 UNN         0.0000 
      6 C5         24.0368   41.5406   63.6485 C.ar      1 UNN         0.0000 
      7 O          22.8262   44.2587   61.6629 O.3       1 UNN         0.0000 
      8 C6         24.1313   44.6250   61.6907 C.ar      1 UNN         0.0000 
      9 C7         24.8646   43.6693   62.4152 C.ar      1 UNN         0.0000 
     10 C8         26.3329   43.6778   62.5955 C.3       1 UNN         0.0000 
     11 C9         24.5750   45.7860   61.0263 C.2       1 UNN         0.0000 
     12 O1         25.8689   46.1772   61.0859 O.2       1 UNN         0.0000 
     13 O2         23.6770   46.4985   60.2940 O.3       1 UNN         0.0000 
     14 C10        23.9107   47.6662   59.4927 C.3       1 UNN         0.0000 
     15 C15        23.1161   48.8639   60.0441 C.3       1 UNN         0.0000 
     16 O16        25.2250   41.1428   64.2008 O.3       1 UNN         0.0000 
     17 C17        25.3649   41.3147   65.6348 C.3       1 UNN         0.0000 
     18 C18        26.6862   40.6122   66.0489 C.3       1 UNN         0.0000 
     19 C19        26.9834   40.7948   67.5564 C.3       1 UNN         0.0000 
     20 N20        26.9988   42.2278   67.9094 N.3       1 UNN         0.0000 
     21 C21        25.7439   42.9468   67.5905 C.3       1 UNN         0.0000 
     22 C22        25.3927   42.8069   66.0871 C.3       1 UNN         0.0000 
     23 H1         22.9294   39.8806   64.3646 H         1 UNN         0.0000 
     24 H2         20.7984   40.5861   63.4579 H         1 UNN         0.0000 
     25 H3         20.6381   42.6686   62.1927 H         1 UNN         0.0000 
     26 H4         26.6255   44.5497   63.1825 H         1 UNN         0.0000 
     27 H5         26.8206   43.7237   61.6210 H         1 UNN         0.0000 
     28 H6         26.6973   42.7857   63.0987 H         1 UNN         0.0000 
     29 H7         23.5805   47.4510   58.4739 H         1 UNN         0.0000 
     30 H8         24.9713   47.9237   59.4555 H         1 UNN         0.0000 
     31 H9         23.3035   49.7482   59.4329 H         1 UNN         0.0000 
     32 H10        23.4208   49.0754   61.0710 H         1 UNN         0.0000 
     33 H11        22.0467   48.6432   60.0302 H         1 UNN         0.0000 
     34 H12        24.5422   40.8064   66.1502 H         1 UNN         0.0000 
     35 H13        27.5162   41.0333   65.4758 H         1 UNN         0.0000 
     36 H14        26.6236   39.5437   65.8229 H         1 UNN         0.0000 
     37 H15        27.9613   40.3650   67.7923 H         1 UNN         0.0000 
     38 H16        26.2307   40.2737   68.1543 H         1 UNN         0.0000 
     39 H17        27.7727   42.6900   67.4233 H         1 UNN         0.0000 
     40 H18        25.8761   44.0001   67.8395 H         1 UNN         0.0000 
     41 H19        24.9278   42.5519   68.2034 H         1 UNN         0.0000 
     42 H20        26.1435   43.3477   65.5068 H         1 UNN         0.0000 
     43 H21        24.4210   43.2706   65.9033 H         1 UNN         0.0000 
@<TRIPOS>BOND
     1    1    2 ar   
     2    1    6 ar   
     3    6   16 1    
     4    2    3 ar   
     5   16   17 1    
     6    3    4 ar   
     7   17   18 1    
     8    4    5 ar   
     9    4    7 ar   
    10    6    5 ar   
    11    5    9 ar   
    12   18   19 1    
    13    7    8 ar   
    14    9    8 ar   
    15    8   11 1    
    16    9   10 1    
    17   19   20 1    
    18   20   21 1    
    19   21   22 1    
    20   11   12 2    
    21   11   13 1    
    22   13   14 1    
    23   14   15 1    
    24   17   22 1    
    25    1   23 1    
    26    2   24 1    
    27    3   25 1    
    28   10   26 1    
    29   10   27 1    
    30   10   28 1    
    31   14   29 1    
    32   14   30 1    
    33   15   31 1    
    34   15   32 1    
    35   15   33 1    
    36   17   34 1    
    37   18   35 1    
    38   18   36 1    
    39   19   37 1    
    40   19   38 1    
    41   20   39 1    
    42   21   40 1    
    43   21   41 1    
    44   22   42 1    
    45   22   43 1    
@<TRIPOS>SUBSTRUCTURE
     1 UNN         1 TEMP              0 ****  ****    0 ROOT 
@<TRIPOS>NORMAL
@<TRIPOS>PROPERTY_DATA
  Total_Score	| 9.4359
 Crash		| -0.6547
  Polar		| 1.1905
  Strain		| 0.2108
  Total		| 9.22509
  Ligmin		| 51.31418
  Full		| 38.86171
  Complex		| 847.58998
  Cscale		| 105.94875
  Pmove		| 0.19019
  Similarity	| -nan
  Total_Score	| 8.3471
  Crash		| -0.8387
  Polar		| 0.2208
  Similarity	| -nan
