#	Name:			1_05_004-p0
#	Creating user name:	Mariana
#	Creation time:		Wed Jan 11 14:02:05 2017

#	Modifying user name:	Mariana
#	Modification time:	Wed Jan 11 14:02:05 2017

@<TRIPOS>MOLECULE
1_05_004-p0
   40    42     1    15     0
SMALL
NO_CHARGES


@<TRIPOS>ATOM
      1 C          21.1313   41.4196   63.0795 C.ar      1 UNN         0.0000 
      2 C1         20.8929   42.5435   62.2530 C.ar      1 UNN         0.0000 
      3 C2         21.9603   43.3746   61.8553 C.ar      1 UNN         0.0000 
      4 C3         23.2536   43.0640   62.2980 C.ar      1 UNN         0.0000 
      5 C4         23.4943   41.9686   63.1262 C.ar      1 UNN         0.0000 
      6 C5         22.4407   41.1205   63.5170 C.ar      1 UNN         0.0000 
      7 O          24.4203   43.6840   62.0199 O.3       1 UNN         0.0000 
      8 C6         25.4178   43.0234   62.6685 C.ar      1 UNN         0.0000 
      9 C7         24.8606   41.9604   63.3930 C.ar      1 UNN         0.0000 
     10 C8         26.7570   43.4148   62.5447 C.2       1 UNN         0.0000 
     11 O1         27.0711   44.3391   61.6033 O.2       1 UNN         0.0000 
     12 O2         27.7222   42.9281   63.3686 O.3       1 UNN         0.0000 
     13 C9         29.1115   43.2840   63.3208 C.3       1 UNN         0.0000 
     14 C10        29.8379   42.8499   64.6055 C.3       1 UNN         0.0000 
     15 O3         25.5220   41.0071   64.1197 O.3       1 UNN         0.0000 
     16 C11        25.4993   41.1670   65.5592 C.3       1 UNN         0.0000 
     17 C12        25.9981   39.8360   66.1851 C.3       1 UNN         0.0000 
     18 C13        26.1908   39.9504   67.7206 C.3       1 UNN         0.0000 
     19 N          27.0542   41.1034   68.0586 N.3       1 UNN         0.0000 
     20 C14        26.5750   42.4045   67.5464 C.3       1 UNN         0.0000 
     21 C15        26.4180   42.3397   66.0112 C.3       1 UNN         0.0000 
     22 H          20.3519   40.8181   63.3544 H         1 UNN         0.0000 
     23 H1         19.9478   42.7506   61.9304 H         1 UNN         0.0000 
     24 H2         21.7978   44.1781   61.2440 H         1 UNN         0.0000 
     25 H3         22.6144   40.3069   64.1107 H         1 UNN         0.0000 
     26 H4         29.5723   42.7945   62.4606 H         1 UNN         0.0000 
     27 H5         29.2136   44.3676   63.2101 H         1 UNN         0.0000 
     28 H6         30.8963   43.1047   64.5410 H         1 UNN         0.0000 
     29 H7         29.4175   43.3677   65.4695 H         1 UNN         0.0000 
     30 H8         29.7424   41.7710   64.7472 H         1 UNN         0.0000 
     31 H9         24.4782   41.3490   65.9204 H         1 UNN         0.0000 
     32 H10        25.2783   39.0393   65.9717 H         1 UNN         0.0000 
     33 H11        26.9541   39.5627   65.7361 H         1 UNN         0.0000 
     34 H12        26.6654   39.0445   68.0926 H         1 UNN         0.0000 
     35 H13        25.2211   40.0590   68.2120 H         1 UNN         0.0000 
     36 H14        27.1855   41.1486   69.0678 H         1 UNN         0.0000 
     37 H15        27.3118   43.1726   67.8039 H         1 UNN         0.0000 
     38 H16        25.6250   42.6716   68.0179 H         1 UNN         0.0000 
     39 H17        27.4039   42.1795   65.5860 H         1 UNN         0.0000 
     40 H18        26.0238   43.2903   65.6444 H         1 UNN         0.0000 
@<TRIPOS>BOND
     1    1    2 ar   
     2    1    6 ar   
     3    1   22 1    
     4    2    3 ar   
     5    2   23 1    
     6    3    4 ar   
     7    3   24 1    
     8    4    5 ar   
     9    4    7 ar   
    10    5    6 ar   
    11    5    9 ar   
    12    6   25 1    
    13    7    8 ar   
    14    8    9 ar   
    15    8   10 1    
    16    9   15 1    
    17   10   11 2    
    18   10   12 1    
    19   12   13 1    
    20   13   14 1    
    21   13   26 1    
    22   13   27 1    
    23   14   28 1    
    24   14   29 1    
    25   14   30 1    
    26   15   16 1    
    27   16   17 1    
    28   16   21 1    
    29   16   31 1    
    30   17   18 1    
    31   17   32 1    
    32   17   33 1    
    33   18   19 1    
    34   18   34 1    
    35   18   35 1    
    36   19   20 1    
    37   19   36 1    
    38   20   21 1    
    39   20   37 1    
    40   20   38 1    
    41   21   39 1    
    42   21   40 1    
@<TRIPOS>SUBSTRUCTURE
     1 UNN         1 TEMP              0 ****  ****    0 ROOT 
@<TRIPOS>NORMAL
@<TRIPOS>PROPERTY_DATA
  Total_Score	| 8.8774
 Crash		| -1.2825
  Polar		| 1.7836
  Strain		| 1.5501
  Total		| 7.32729
  Ligmin		| 45.32517
  Full		| 36.03619
  Complex		| 830.62833
  Cscale		| 103.50509
  Pmove		| 0.17293
  Similarity	| -nan
  Total_Score	| 7.4872
  Crash		| -1.5409
  Polar		| 0.5738
  Similarity	| -nan
