#	Name:			1_09_005-p0
#	Creating user name:	Mariana
#	Creation time:		Wed Jan 11 14:04:59 2017

#	Modifying user name:	Mariana
#	Modification time:	Wed Jan 11 14:04:59 2017

@<TRIPOS>MOLECULE
1_09_005-p0
   40    42     1    15     0
SMALL
NO_CHARGES


@<TRIPOS>ATOM
      1 C          24.2150   41.0738   62.6205 C.ar      1 UNN         0.0000 
      2 C1         22.8956   41.1008   63.1151 C.ar      1 UNN         0.0000 
      3 C2         22.2434   42.3315   63.3250 C.ar      1 UNN         0.0000 
      4 C3         22.9393   43.5172   63.0354 C.ar      1 UNN         0.0000 
      5 C4         24.2435   43.5139   62.5122 C.ar      1 UNN         0.0000 
      6 C5         24.8828   42.2756   62.3070 C.ar      1 UNN         0.0000 
      7 S          22.4535   45.1505   63.2283 S.3       1 UNN         0.0000 
      8 C6         23.9010   45.8487   62.6102 C.ar      1 UNN         0.0000 
      9 C7         24.7765   44.7992   62.2653 C.ar      1 UNN         0.0000 
     10 C8         24.1322   47.2301   62.5236 C.2       1 UNN         0.0000 
     11 O          24.5796   47.7754   61.3694 O.2       1 UNN         0.0000 
     12 O1         23.9577   48.0044   63.6256 O.3       1 UNN         0.0000 
     13 C9         24.2531   49.4008   63.7672 C.3       1 UNN         0.0000 
     14 C10        25.6800   49.6366   64.3104 C.3       1 UNN         0.0000 
     15 O2         26.0103   44.9928   61.6922 O.3       1 UNN         0.0000 
     16 C11        27.1045   45.3669   62.5693 C.3       1 UNN         0.0000 
     17 C12        28.1232   46.2249   61.7527 C.3       1 UNN         0.0000 
     18 C13        29.2143   45.3996   61.0115 C.3       1 UNN         0.0000 
     19 N          28.7845   44.0017   60.8122 N.3       1 UNN         0.0000 
     20 C14        28.5361   43.2617   62.0736 C.3       1 UNN         0.0000 
     21 C15        27.7962   44.1040   63.1603 C.3       1 UNN         0.0000 
     22 H          24.6911   40.1816   62.4831 H         1 UNN         0.0000 
     23 H1         22.4150   40.2238   63.3352 H         1 UNN         0.0000 
     24 H2         21.2897   42.3621   63.6913 H         1 UNN         0.0000 
     25 H3         25.8308   42.2341   61.9396 H         1 UNN         0.0000 
     26 H4         24.1229   49.9050   62.8064 H         1 UNN         0.0000 
     27 H5         23.5348   49.8195   64.4745 H         1 UNN         0.0000 
     28 H6         25.8402   50.7009   64.4952 H         1 UNN         0.0000 
     29 H7         25.8165   49.0946   65.2498 H         1 UNN         0.0000 
     30 H8         26.4262   49.2945   63.5912 H         1 UNN         0.0000 
     31 H9         26.7537   45.9931   63.3981 H         1 UNN         0.0000 
     32 H10        27.5764   46.8216   61.0179 H         1 UNN         0.0000 
     33 H11        28.6229   46.9317   62.4236 H         1 UNN         0.0000 
     34 H12        30.1445   45.4102   61.5879 H         1 UNN         0.0000 
     35 H13        29.4215   45.8456   60.0357 H         1 UNN         0.0000 
     36 H14        27.9308   44.0084   60.2455 H         1 UNN         0.0000 
     37 H15        29.4947   42.9179   62.4718 H         1 UNN         0.0000 
     38 H16        27.9577   42.3735   61.8188 H         1 UNN         0.0000 
     39 H17        28.5276   44.4328   63.9054 H         1 UNN         0.0000 
     40 H18        27.0629   43.4833   63.6814 H         1 UNN         0.0000 
@<TRIPOS>BOND
     1    1    2 ar   
     2    1    6 ar   
     3    1   22 1    
     4    2    3 ar   
     5    2   23 1    
     6    3    4 ar   
     7    3   24 1    
     8    4    5 ar   
     9    4    7 ar   
    10    5    6 ar   
    11    5    9 ar   
    12    6   25 1    
    13    7    8 ar   
    14    8    9 ar   
    15    8   10 1    
    16    9   15 1    
    17   10   11 2    
    18   10   12 1    
    19   12   13 1    
    20   13   14 1    
    21   13   26 1    
    22   13   27 1    
    23   14   28 1    
    24   14   29 1    
    25   14   30 1    
    26   15   16 1    
    27   16   17 1    
    28   16   21 1    
    29   16   31 1    
    30   17   18 1    
    31   17   32 1    
    32   17   33 1    
    33   18   19 1    
    34   18   34 1    
    35   18   35 1    
    36   19   20 1    
    37   19   36 1    
    38   20   21 1    
    39   20   37 1    
    40   20   38 1    
    41   21   39 1    
    42   21   40 1    
@<TRIPOS>SUBSTRUCTURE
     1 UNN         1 TEMP              0 ****  ****    0 ROOT 
@<TRIPOS>NORMAL
@<TRIPOS>PROPERTY_DATA
  Total_Score	| 8.7471
 Crash		| -1.0873
  Polar		| 1.6147
  Strain		| 2.0599
  Total		| 6.68716
  Ligmin		| 58.27977
  Full		| 49.93477
  Complex		| 845.20425
  Cscale		| 107.32752
  Pmove		| 0.24843
  Similarity	| -nan
  Total_Score	| 7.1188
  Crash		| -1.5857
  Polar		| 0.8534
  Similarity	| -nan
