#	Name:			1_12a_000-p0
#	Creating user name:	Mariana
#	Creation time:		Wed Jan 11 14:05:25 2017

#	Modifying user name:	Mariana
#	Modification time:	Wed Jan 11 14:05:25 2017

@<TRIPOS>MOLECULE
1_12a_000-p0
   47    50     1    15     0
SMALL
NO_CHARGES


@<TRIPOS>ATOM
      1 C          25.8581   40.0027   67.1619 C.ar      1 UNN         0.0000 
      2 C1         27.2325   39.9306   67.4718 C.ar      1 UNN         0.0000 
      3 C2         28.1534   40.7758   66.8209 C.ar      1 UNN         0.0000 
      4 C3         27.6715   41.6676   65.8478 C.ar      1 UNN         0.0000 
      5 C4         26.3116   41.7299   65.4973 C.ar      1 UNN         0.0000 
      6 C5         25.3940   40.9022   66.1794 C.ar      1 UNN         0.0000 
      7 S          28.5101   42.8444   64.9207 S.3       1 UNN         0.0000 
      8 C6         27.1385   43.4014   64.0403 C.ar      1 UNN         0.0000 
      9 C7         26.0184   42.6695   64.4863 C.ar      1 UNN         0.0000 
     10 C8         27.1883   44.4250   63.0837 C.2       1 UNN         0.0000 
     11 O          26.7302   44.2017   61.8305 O.2       1 UNN         0.0000 
     12 O1         27.6596   45.6492   63.4365 O.3       1 UNN         0.0000 
     13 C9         27.7030   46.8396   62.6361 C.3       1 UNN         0.0000 
     14 C10        26.5670   47.7131   63.0226 C.ar      1 UNN         0.0000 
     15 O2         24.7282   42.9447   64.1123 O.3       1 UNN         0.0000 
     16 C11        24.3184   42.5425   62.7843 C.3       1 UNN         0.0000 
     17 C12        23.6132   43.7711   62.1243 C.3       1 UNN         0.0000 
     18 C13        22.0750   43.8305   62.3368 C.3       1 UNN         0.0000 
     19 N          21.6789   43.0737   63.5380 N.3       1 UNN         0.0000 
     20 C14        21.9909   41.6250   63.4827 C.3       1 UNN         0.0000 
     21 C15        23.3797   41.3063   62.8546 C.3       1 UNN         0.0000 
     22 C16        26.7000   48.6807   64.0469 C.ar      1 UNN         0.0000 
     23 C17        25.5979   49.4633   64.4421 C.ar      1 UNN         0.0000 
     24 C18        24.3477   49.2817   63.8245 C.ar      1 UNN         0.0000 
     25 C19        24.2007   48.3228   62.8064 C.ar      1 UNN         0.0000 
     26 C20        25.3035   47.5445   62.4091 C.ar      1 UNN         0.0000 
     27 H          25.1920   39.4026   67.6531 H         1 UNN         0.0000 
     28 H1         27.5615   39.2671   68.1770 H         1 UNN         0.0000 
     29 H2         29.1480   40.7426   67.0527 H         1 UNN         0.0000 
     30 H3         24.3945   40.9500   65.9738 H         1 UNN         0.0000 
     31 H4         28.6588   47.3335   62.8151 H         1 UNN         0.0000 
     32 H5         27.6594   46.6113   61.5673 H         1 UNN         0.0000 
     33 H6         25.1772   42.2650   62.1609 H         1 UNN         0.0000 
     34 H7         24.0557   44.6895   62.5190 H         1 UNN         0.0000 
     35 H8         23.8105   43.7708   61.0528 H         1 UNN         0.0000 
     36 H9         21.5525   43.4267   61.4654 H         1 UNN         0.0000 
     37 H10        21.7589   44.8676   62.4639 H         1 UNN         0.0000 
     38 H11        22.1615   43.4854   64.3368 H         1 UNN         0.0000 
     39 H12        21.2062   41.1208   62.9114 H         1 UNN         0.0000 
     40 H13        21.9524   41.2381   64.5018 H         1 UNN         0.0000 
     41 H14        23.2269   40.9455   61.8373 H         1 UNN         0.0000 
     42 H15        23.8660   40.4970   63.4051 H         1 UNN         0.0000 
     43 H16        27.5962   48.8097   64.5215 H         1 UNN         0.0000 
     44 H17        25.7031   50.1584   65.1854 H         1 UNN         0.0000 
     45 H18        23.5437   49.8414   64.1176 H         1 UNN         0.0000 
     46 H19        23.2925   48.1913   62.3558 H         1 UNN         0.0000 
     47 H20        25.1771   46.8521   61.6675 H         1 UNN         0.0000 
@<TRIPOS>BOND
     1    1    2 ar   
     2    1    6 ar   
     3    1   27 1    
     4    2    3 ar   
     5    2   28 1    
     6    3    4 ar   
     7    3   29 1    
     8    4    5 ar   
     9    4    7 ar   
    10    5    6 ar   
    11    5    9 ar   
    12    6   30 1    
    13    7    8 ar   
    14    8    9 ar   
    15    8   10 1    
    16    9   15 1    
    17   10   11 2    
    18   10   12 1    
    19   12   13 1    
    20   13   14 1    
    21   13   31 1    
    22   13   32 1    
    23   14   22 ar   
    24   14   26 ar   
    25   15   16 1    
    26   16   17 1    
    27   16   21 1    
    28   16   33 1    
    29   17   18 1    
    30   17   34 1    
    31   17   35 1    
    32   18   19 1    
    33   18   36 1    
    34   18   37 1    
    35   19   20 1    
    36   19   38 1    
    37   20   21 1    
    38   20   39 1    
    39   20   40 1    
    40   21   41 1    
    41   21   42 1    
    42   22   23 ar   
    43   22   43 1    
    44   23   24 ar   
    45   23   44 1    
    46   24   25 ar   
    47   24   45 1    
    48   25   26 ar   
    49   25   46 1    
    50   26   47 1    
@<TRIPOS>SUBSTRUCTURE
     1 UNN         1 TEMP              0 ****  ****    0 ROOT 
@<TRIPOS>NORMAL
@<TRIPOS>PROPERTY_DATA
  Total_Score	| 10.1657
 Crash		| -1.5729
  Polar		| 1.1223
  Strain		| 6.1349
  Total		| 4.03083
  Ligmin		| 70.65274
  Full		| 66.60557
  Complex		| 889.81937
  Cscale		| 109.76774
  Pmove		| 0.20730
  Similarity	| -nan
  Total_Score	| 9.4279
  Crash		| -2.6040
  Polar		| 1.0828
  Similarity	| -nan
