#	Name:			1_12b_000-p0
#	Creating user name:	Mariana
#	Creation time:		Wed Jan 11 14:06:05 2017

#	Modifying user name:	Mariana
#	Modification time:	Wed Jan 11 14:06:05 2017

@<TRIPOS>MOLECULE
1_12b_000-p0
   51    54     1    15     0
SMALL
NO_CHARGES


@<TRIPOS>ATOM
      1 C          21.8821   40.0814   64.1099 C.ar      1 UNN         0.0000 
      2 C1         20.8721   40.7611   63.3956 C.ar      1 UNN         0.0000 
      3 C2         21.1756   41.9442   62.6948 C.ar      1 UNN         0.0000 
      4 C3         22.4936   42.4243   62.7353 C.ar      1 UNN         0.0000 
      5 C4         23.5151   41.7712   63.4438 C.ar      1 UNN         0.0000 
      6 C5         23.2028   40.5779   64.1293 C.ar      1 UNN         0.0000 
      7 S          23.1689   43.8195   62.0060 S.3       1 UNN         0.0000 
      8 C6         24.7777   43.5726   62.5734 C.ar      1 UNN         0.0000 
      9 C7         24.7663   42.4299   63.3989 C.ar      1 UNN         0.0000 
     10 C8         25.8408   44.4372   62.2685 C.2       1 UNN         0.0000 
     11 O          27.1234   44.0052   62.2893 O.2       1 UNN         0.0000 
     12 O1         25.5462   45.7464   62.0719 O.3       1 UNN         0.0000 
     13 C9         26.3957   46.8845   61.9018 C.3       1 UNN         0.0000 
     14 C10        25.9959   47.8872   62.9214 C.ar      1 UNN         0.0000 
     15 O2         25.8300   41.9953   64.1516 O.3       1 UNN         0.0000 
     16 C11        26.2608   42.8650   65.2357 C.3       1 UNN         0.0000 
     17 C12        27.4980   42.2110   65.9189 C.3       1 UNN         0.0000 
     18 C13        27.1391   41.0753   66.9243 C.3       1 UNN         0.0000 
     19 N          25.6976   40.7498   66.9401 N.3       1 UNN         0.0000 
     20 C14        24.7942   41.9057   67.1533 C.3       1 UNN         0.0000 
     21 C15        25.1719   43.1593   66.3115 C.3       1 UNN         0.0000 
     22 C16        24.6447   48.2973   63.0150 C.ar      1 UNN         0.0000 
     23 C17        24.2151   49.1895   64.0234 C.ar      1 UNN         0.0000 
     24 C18        25.1545   49.6672   64.9573 C.ar      1 UNN         0.0000 
     25 C19        26.5027   49.2778   64.8718 C.ar      1 UNN         0.0000 
     26 C20        26.9231   48.3963   63.8600 C.ar      1 UNN         0.0000 
     27 O3         22.9022   49.5489   64.2035 O.3       1 UNN         0.0000 
     28 C21        22.0775   49.5888   63.0270 C.3       1 UNN         0.0000 
     29 H          21.6550   39.2211   64.6129 H         1 UNN         0.0000 
     30 H1         19.9192   40.3905   63.3798 H         1 UNN         0.0000 
     31 H2         20.4565   42.4415   62.1661 H         1 UNN         0.0000 
     32 H3         23.9242   40.0665   64.6374 H         1 UNN         0.0000 
     33 H4         27.4491   46.6071   61.9925 H         1 UNN         0.0000 
     34 H5         26.2367   47.2950   60.9026 H         1 UNN         0.0000 
     35 H6         26.5906   43.8227   64.8254 H         1 UNN         0.0000 
     36 H7         28.1698   41.8251   65.1473 H         1 UNN         0.0000 
     37 H8         28.0497   42.9887   66.4570 H         1 UNN         0.0000 
     38 H9         27.4395   41.3615   67.9362 H         1 UNN         0.0000 
     39 H10        27.6846   40.1645   66.6649 H         1 UNN         0.0000 
     40 H11        25.4591   40.2945   66.0572 H         1 UNN         0.0000 
     41 H12        24.7994   42.1612   68.2160 H         1 UNN         0.0000 
     42 H13        23.7818   41.5872   66.9012 H         1 UNN         0.0000 
     43 H14        25.5582   43.9313   66.9849 H         1 UNN         0.0000 
     44 H15        24.2804   43.5773   65.8380 H         1 UNN         0.0000 
     45 H16        23.9559   47.9161   62.3625 H         1 UNN         0.0000 
     46 H17        24.8564   50.2914   65.7117 H         1 UNN         0.0000 
     47 H18        27.1737   49.6222   65.5607 H         1 UNN         0.0000 
     48 H19        27.9048   48.1122   63.8270 H         1 UNN         0.0000 
     49 H20        21.1688   50.1444   63.2624 H         1 UNN         0.0000 
     50 H21        22.5829   50.0880   62.1997 H         1 UNN         0.0000 
     51 H22        21.7945   48.5811   62.7206 H         1 UNN         0.0000 
@<TRIPOS>BOND
     1    1    2 ar   
     2    1    6 ar   
     3    1   29 1    
     4    2    3 ar   
     5    2   30 1    
     6    3    4 ar   
     7    3   31 1    
     8    4    5 ar   
     9    4    7 ar   
    10    5    6 ar   
    11    5    9 ar   
    12    6   32 1    
    13    7    8 ar   
    14    8    9 ar   
    15    8   10 1    
    16    9   15 1    
    17   10   11 2    
    18   10   12 1    
    19   12   13 1    
    20   13   14 1    
    21   13   33 1    
    22   13   34 1    
    23   14   22 ar   
    24   14   26 ar   
    25   15   16 1    
    26   16   17 1    
    27   16   21 1    
    28   16   35 1    
    29   17   18 1    
    30   17   36 1    
    31   17   37 1    
    32   18   19 1    
    33   18   38 1    
    34   18   39 1    
    35   19   20 1    
    36   19   40 1    
    37   20   21 1    
    38   20   41 1    
    39   20   42 1    
    40   21   43 1    
    41   21   44 1    
    42   22   23 ar   
    43   22   45 1    
    44   23   24 ar   
    45   23   27 1    
    46   24   25 ar   
    47   24   46 1    
    48   25   26 ar   
    49   25   47 1    
    50   26   48 1    
    51   27   28 1    
    52   28   49 1    
    53   28   50 1    
    54   28   51 1    
@<TRIPOS>SUBSTRUCTURE
     1 UNN         1 TEMP              0 ****  ****    0 ROOT 
@<TRIPOS>NORMAL
@<TRIPOS>PROPERTY_DATA
  Total_Score	| 12.7108
 Crash		| -1.3573
  Polar		| 1.1809
  Strain		| 3.2038
  Total		| 9.50703
  Ligmin		| 76.45260
  Full		| 64.99503
  Complex		| 901.46948
  Cscale		| 115.22542
  Pmove		| 0.20187
  Similarity	| -nan
  Total_Score	| 11.4796
  Crash		| -1.9708
  Polar		| 1.1994
  Similarity	| -nan
