#	Name:			1_14a_001-p0
#	Creating user name:	Mariana
#	Creation time:		Wed Jan 11 14:06:27 2017

#	Modifying user name:	Mariana
#	Modification time:	Wed Jan 11 14:06:27 2017

@<TRIPOS>MOLECULE
1_14a_001-p0
   48    51     1    15     0
SMALL
NO_CHARGES


@<TRIPOS>ATOM
      1 C          28.1325   45.9296   61.7362 C.ar      1 UNN         0.0000 
      2 C1         28.8128   44.8898   62.4038 C.ar      1 UNN         0.0000 
      3 C2         28.1021   43.7804   62.9003 C.ar      1 UNN         0.0000 
      4 C3         26.7103   43.7486   62.7249 C.ar      1 UNN         0.0000 
      5 C4         25.9999   44.7862   62.0953 C.ar      1 UNN         0.0000 
      6 C5         26.7317   45.8787   61.5763 C.ar      1 UNN         0.0000 
      7 S          25.5845   42.5343   63.1603 S.3       1 UNN         0.0000 
      8 C6         24.1767   43.3424   62.5747 C.ar      1 UNN         0.0000 
      9 C7         24.5986   44.5861   62.0594 C.ar      1 UNN         0.0000 
     10 C8         22.8964   42.8111   62.6643 C.2       1 UNN         0.0000 
     11 O          21.9407   43.5680   62.7820 O.2       1 UNN         0.0000 
     12 N          22.7294   41.4959   62.6457 N.am      1 UNN         0.0000 
     13 C9         21.5158   40.7588   62.8382 C.3       1 UNN         0.0000 
     14 C14        21.4180   40.0397   64.1373 C.ar      1 UNN         0.0000 
     15 O1         23.7355   45.4421   61.4197 O.3       1 UNN         0.0000 
     16 C11        23.6623   46.8042   61.9088 C.3       1 UNN         0.0000 
     17 C12        22.4888   47.0314   62.9003 C.3       1 UNN         0.0000 
     18 C13        22.4165   48.5189   63.3590 C.3       1 UNN         0.0000 
     19 N1         23.1114   49.4716   62.4579 N.3       1 UNN         0.0000 
     20 C10        22.9864   49.1625   61.0183 C.3       1 UNN         0.0000 
     21 C15        23.5068   47.7367   60.6702 C.3       1 UNN         0.0000 
     22 C22        20.1394   39.6013   64.5634 C.ar      1 UNN         0.0000 
     23 C23        19.9760   38.9206   65.7841 C.ar      1 UNN         0.0000 
     24 C24        21.0915   38.6533   66.5917 C.ar      1 UNN         0.0000 
     25 C25        22.3739   39.0496   66.1746 C.ar      1 UNN         0.0000 
     26 C26        22.5364   39.7386   64.9565 C.ar      1 UNN         0.0000 
     27 H1         28.6598   46.7191   61.3573 H         1 UNN         0.0000 
     28 H2         29.8300   44.9264   62.5063 H         1 UNN         0.0000 
     29 H3         28.5854   43.0143   63.3715 H         1 UNN         0.0000 
     30 H4         26.2591   46.6352   61.0789 H         1 UNN         0.0000 
     31 H5         23.5229   40.9595   62.4855 H         1 UNN         0.0000 
     32 H6         21.4547   40.0112   62.0470 H         1 UNN         0.0000 
     33 H7         20.6496   41.4154   62.7382 H         1 UNN         0.0000 
     34 H8         24.5844   47.0940   62.4260 H         1 UNN         0.0000 
     35 H9         22.6028   46.3766   63.7666 H         1 UNN         0.0000 
     36 H10        21.5508   46.7627   62.3990 H         1 UNN         0.0000 
     37 H11        22.8735   48.6133   64.3480 H         1 UNN         0.0000 
     38 H12        21.3729   48.8247   63.4444 H         1 UNN         0.0000 
     39 H13        24.1049   49.5009   62.7027 H         1 UNN         0.0000 
     40 H14        23.5465   49.9069   60.4508 H         1 UNN         0.0000 
     41 H15        21.9338   49.2551   60.7356 H         1 UNN         0.0000 
     42 H16        22.8156   47.2800   59.9574 H         1 UNN         0.0000 
     43 H17        24.4790   47.8155   60.1742 H         1 UNN         0.0000 
     44 H18        19.3140   39.7970   63.9928 H         1 UNN         0.0000 
     45 H19        19.0449   38.6286   66.0793 H         1 UNN         0.0000 
     46 H20        20.9677   38.1901   67.4892 H         1 UNN         0.0000 
     47 H21        23.1878   38.8422   66.7574 H         1 UNN         0.0000 
     48 H22        23.4823   40.0161   64.6810 H         1 UNN         0.0000 
@<TRIPOS>BOND
     1    1    2 ar   
     2    6    1 ar   
     3   13   14 1    
     4    3    2 ar   
     5   14   22 ar   
     6    4    3 ar   
     7   22   23 ar   
     8    5    4 ar   
     9    7    4 ar   
    10    5    6 ar   
    11    9    5 ar   
    12   23   24 ar   
    13    8    7 ar   
    14    8    9 ar   
    15   10    8 1    
    16    9   15 1    
    17   10   11 2    
    18   12   10 am   
    19   12   13 1    
    20   24   25 ar   
    21   25   26 ar   
    22   14   26 ar   
    23    1   27 1    
    24    2   28 1    
    25    3   29 1    
    26   15   16 1    
    27   16   17 1    
    28   16   21 1    
    29    6   30 1    
    30   17   18 1    
    31   12   31 1    
    32   13   32 1    
    33   18   19 1    
    34   13   33 1    
    35   16   34 1    
    36   19   20 1    
    37   17   35 1    
    38   21   20 1    
    39   17   36 1    
    40   18   37 1    
    41   18   38 1    
    42   19   39 1    
    43   20   40 1    
    44   20   41 1    
    45   21   42 1    
    46   21   43 1    
    47   22   44 1    
    48   23   45 1    
    49   24   46 1    
    50   25   47 1    
    51   26   48 1    
@<TRIPOS>SUBSTRUCTURE
     1 UNN         1 TEMP              0 ****  ****    0 ROOT 
@<TRIPOS>NORMAL
@<TRIPOS>PROPERTY_DATA
  Total_Score	| 11.0654
 Crash		| -2.0054
  Polar		| 1.0847
  Strain		| 2.4963
  Total		| 8.56903
  Ligmin		| 76.13198
  Full		| 66.03890
  Complex		| 899.46087
  Cscale		| 112.14058
  Pmove		| 0.25169
  Similarity	| -nan
  Total_Score	| 7.3658
  Crash		| -2.6018
  Polar		| 0.4313
  Similarity	| -nan
