#	Name:			1_14b_006-p0
#	Creating user name:	Mariana
#	Creation time:		Wed Jan 11 14:06:45 2017

#	Modifying user name:	Mariana
#	Modification time:	Wed Jan 11 14:06:45 2017

@<TRIPOS>MOLECULE
1_14b_006-p0
   52    55     1    15     0
SMALL
NO_CHARGES


@<TRIPOS>ATOM
      1 C          21.4357   38.6926   65.4228 C.ar      1 UNN         0.0000 
      2 C1         20.1599   39.0980   64.9790 C.ar      1 UNN         0.0000 
      3 C2         20.0230   40.2388   64.1658 C.ar      1 UNN         0.0000 
      4 C3         21.1782   40.9617   63.8224 C.ar      1 UNN         0.0000 
      5 C4         22.4585   40.5796   64.2520 C.ar      1 UNN         0.0000 
      6 C5         22.5845   39.4273   65.0573 C.ar      1 UNN         0.0000 
      7 S          21.3499   42.3952   62.8989 S.3       1 UNN         0.0000 
      8 C6         23.0655   42.5287   63.0321 C.ar      1 UNN         0.0000 
      9 C7         23.4932   41.4535   63.8390 C.ar      1 UNN         0.0000 
     10 C8         23.8221   43.5378   62.4537 C.2       1 UNN         0.0000 
     11 O          25.0406   43.4231   62.4083 O.2       1 UNN         0.0000 
     12 N          23.2240   44.6152   61.9615 N.am      1 UNN         0.0000 
     13 C9         23.8273   45.7673   61.3610 C.3       1 UNN         0.0000 
     14 H1         21.5280   37.8672   66.0165 H         1 UNN         0.0000 
     15 O1         24.7967   41.2735   64.2278 O.3       1 UNN         0.0000 
     16 C11        25.0930   41.6893   65.5869 C.3       1 UNN         0.0000 
     17 C12        25.4413   43.2058   65.6905 C.3       1 UNN         0.0000 
     18 C13        26.1613   43.5887   67.0184 C.3       1 UNN         0.0000 
     19 N1         26.0771   42.5065   68.0231 N.3       1 UNN         0.0000 
     20 C14        26.6578   41.2188   67.5744 C.3       1 UNN         0.0000 
     21 C15        26.2732   40.8339   66.1149 C.3       1 UNN         0.0000 
     22 H2         19.3298   38.5679   65.2547 H         1 UNN         0.0000 
     23 H3         19.1036   40.5429   63.8477 H         1 UNN         0.0000 
     24 H4         23.5019   39.1237   65.3903 H         1 UNN         0.0000 
     25 H5         22.2576   44.6414   62.0326 H         1 UNN         0.0000 
     26 H6         23.3996   45.8877   60.3658 H         1 UNN         0.0000 
     27 H7         24.9066   45.6384   61.2318 H         1 UNN         0.0000 
     28 H8         24.2434   41.4896   66.2545 H         1 UNN         0.0000 
     29 C29        23.5228   46.9909   62.1506 C.ar      1 UNN         0.0000 
     30 C30        24.5561   47.8264   62.6406 C.ar      1 UNN         0.0000 
     31 C31        24.2589   49.0061   63.3544 C.ar      1 UNN         0.0000 
     32 C32        22.9150   49.3628   63.5797 C.ar      1 UNN         0.0000 
     33 C33        21.8779   48.5433   63.1036 C.ar      1 UNN         0.0000 
     34 C34        22.1792   47.3701   62.3891 C.ar      1 UNN         0.0000 
     35 O35        25.2661   49.8431   63.7448 O.3       1 UNN         0.0000 
     36 C36        25.7121   49.6163   65.0900 C.3       1 UNN         0.0000 
     37 H9         24.5179   43.7841   65.5956 H         1 UNN         0.0000 
     38 H10        26.0911   43.4840   64.8565 H         1 UNN         0.0000 
     39 H11        25.7105   44.4900   67.4417 H         1 UNN         0.0000 
     40 H12        27.2179   43.8063   66.8276 H         1 UNN         0.0000 
     41 H13        25.0895   42.3714   68.2526 H         1 UNN         0.0000 
     42 H14        26.3076   40.4434   68.2599 H         1 UNN         0.0000 
     43 H15        27.7469   41.2697   67.6654 H         1 UNN         0.0000 
     44 H16        27.1367   40.9811   65.4592 H         1 UNN         0.0000 
     45 H17        26.0053   39.7737   66.0729 H         1 UNN         0.0000 
     46 H18        25.5357   47.5898   62.4643 H         1 UNN         0.0000 
     47 H19        22.6883   50.2218   64.0854 H         1 UNN         0.0000 
     48 H20        20.9042   48.8062   63.2699 H         1 UNN         0.0000 
     49 H21        21.4090   46.7964   62.0368 H         1 UNN         0.0000 
     50 H22        26.5145   50.3204   65.2994 H         1 UNN         0.0000 
     51 H23        26.1160   48.6097   65.2080 H         1 UNN         0.0000 
     52 H24        24.9117   49.7820   65.8165 H         1 UNN         0.0000 
@<TRIPOS>BOND
     1    1    2 ar   
     2    6    1 ar   
     3   13   29 1    
     4    3    2 ar   
     5   29   30 ar   
     6    4    3 ar   
     7   30   31 ar   
     8    5    4 ar   
     9    7    4 ar   
    10    5    6 ar   
    11    9    5 ar   
    12   31   32 ar   
    13    8    7 ar   
    14    8    9 ar   
    15   10    8 1    
    16    9   15 1    
    17   10   11 2    
    18   12   10 am   
    19   12   13 1    
    20   32   33 ar   
    21    1   14 1    
    22   33   34 ar   
    23   29   34 ar   
    24    2   22 1    
    25    3   23 1    
    26   15   16 1    
    27   16   17 1    
    28   16   21 1    
    29   31   35 1    
    30   17   18 1    
    31   35   36 1    
    32    6   24 1    
    33   18   19 1    
    34   12   25 1    
    35   13   26 1    
    36   19   20 1    
    37   13   27 1    
    38   21   20 1    
    39   16   28 1    
    40   17   37 1    
    41   17   38 1    
    42   18   39 1    
    43   18   40 1    
    44   19   41 1    
    45   20   42 1    
    46   20   43 1    
    47   21   44 1    
    48   21   45 1    
    49   30   46 1    
    50   32   47 1    
    51   33   48 1    
    52   34   49 1    
    53   36   50 1    
    54   36   51 1    
    55   36   52 1    
@<TRIPOS>SUBSTRUCTURE
     1 UNN         1 TEMP              0 ****  ****    0 ROOT 
@<TRIPOS>NORMAL
@<TRIPOS>PROPERTY_DATA
  Total_Score	| 12.3228
 Crash		| -2.0793
  Polar		| 0.5742
  Strain		| 2.5082
  Total		| 9.81457
  Ligmin		| 77.57048
  Full		| 64.37375
  Complex		| 912.06249
  Cscale		| 110.29593
  Pmove		| 0.29037
  Similarity	| -nan
  Total_Score	| 8.0760
  Crash		| -4.2624
  Polar		| 0.0571
  Similarity	| -nan
