#	Name:			2_04c_001-p0
#	Creating user name:	Mariana
#	Creation time:		Wed Jan 11 14:07:57 2017

#	Modifying user name:	Mariana
#	Modification time:	Wed Jan 11 14:07:57 2017

@<TRIPOS>MOLECULE
2_04c_001-p0
   58    61     1    15     0
SMALL
NO_CHARGES


@<TRIPOS>ATOM
      1 C          21.7777   39.5680   64.5449 C.ar      1 UNN         0.0000 
      2 C1         20.7693   40.2300   63.8162 C.ar      1 UNN         0.0000 
      3 C2         21.0780   41.3848   63.0732 C.ar      1 UNN         0.0000 
      4 C3         22.4001   41.8514   63.0819 C.ar      1 UNN         0.0000 
      5 C4         23.4241   41.1961   63.7891 C.ar      1 UNN         0.0000 
      6 C5         23.1061   40.0409   64.5297 C.ar      1 UNN         0.0000 
      7 S          23.0773   43.2192   62.3037 S.3       1 UNN         0.0000 
      8 C6         24.6867   42.9631   62.8450 C.ar      1 UNN         0.0000 
      9 C7         24.6878   41.8124   63.6556 C.ar      1 UNN         0.0000 
     10 C8         25.7768   43.7769   62.4867 C.2       1 UNN         0.0000 
     11 O          27.0322   43.4369   62.8593 O.2       1 UNN         0.0000 
     12 O1         25.5641   44.9078   61.7695 O.3       1 UNN         0.0000 
     13 C9         26.5922   45.8215   61.3680 C.3       1 UNN         0.0000 
     14 H1         21.5468   38.7257   65.0775 H         1 UNN         0.0000 
     15 O2         25.8473   41.3624   64.2263 O.3       1 UNN         0.0000 
     16 C11        26.1151   41.6133   65.6271 C.3       1 UNN         0.0000 
     17 C12        25.4492   42.8625   66.2982 C.3       1 UNN         0.0000 
     18 C13        25.8907   43.0624   67.7778 C.3       1 UNN         0.0000 
     19 N          27.0913   42.2745   68.1659 N.3       1 UNN         0.0000 
     20 C14        28.1588   42.2933   67.1392 C.3       1 UNN         0.0000 
     21 C15        27.6669   41.6774   65.7967 C.3       1 UNN         0.0000 
     22 H2         19.8154   39.8716   63.8192 H         1 UNN         0.0000 
     23 H3         20.3628   41.8651   62.5272 H         1 UNN         0.0000 
     24 H4         23.8287   39.5465   65.0558 H         1 UNN         0.0000 
     25 H5         27.3289   45.2947   60.7620 H         1 UNN         0.0000 
     26 H6         27.0972   46.2086   62.2566 H         1 UNN         0.0000 
     27 H7         25.7624   40.7330   66.1766 H         1 UNN         0.0000 
     28 H8         24.3595   42.7444   66.2591 H         1 UNN         0.0000 
     29 H9         25.7030   43.7593   65.7140 H         1 UNN         0.0000 
     30 H10        25.0680   42.7651   68.4345 H         1 UNN         0.0000 
     31 H11        26.1046   44.1226   67.9574 H         1 UNN         0.0000 
     32 C32        26.0055   46.9922   60.5462 C.3       1 UNN         0.0000 
     33 C33        24.9091   47.7637   61.1974 C.ar      1 UNN         0.0000 
     34 C34        23.7863   48.1804   60.4447 C.ar      1 UNN         0.0000 
     35 C35        22.7968   49.0121   61.0046 C.ar      1 UNN         0.0000 
     36 C36        22.8976   49.3770   62.3632 C.ar      1 UNN         0.0000 
     37 C37        23.9943   48.9684   63.1520 C.ar      1 UNN         0.0000 
     38 C38        24.9965   48.1669   62.5536 C.ar      1 UNN         0.0000 
     39 O39        21.7050   49.4392   60.2956 O.3       1 UNN         0.0000 
     40 C40        21.9758   49.9924   58.9940 C.3       1 UNN         0.0000 
     41 O41        23.9660   49.3099   64.4839 O.3       1 UNN         0.0000 
     42 C42        25.1781   49.7751   65.1017 C.3       1 UNN         0.0000 
     43 H12        26.8275   41.3103   68.3734 H         1 UNN         0.0000 
     44 H13        29.0186   41.7326   67.5200 H         1 UNN         0.0000 
     45 H14        28.4830   43.3304   66.9846 H         1 UNN         0.0000 
     46 H15        28.0941   42.2800   64.9798 H         1 UNN         0.0000 
     47 H16        28.0805   40.6623   65.6984 H         1 UNN         0.0000 
     48 H17        25.6665   46.5840   59.5882 H         1 UNN         0.0000 
     49 H18        26.8148   47.6830   60.3225 H         1 UNN         0.0000 
     50 H19        23.6957   47.8935   59.4674 H         1 UNN         0.0000 
     51 H20        22.1597   49.9505   62.7844 H         1 UNN         0.0000 
     52 H21        25.7968   47.8792   63.1139 H         1 UNN         0.0000 
     53 H22        22.2598   49.2071   58.2870 H         1 UNN         0.0000 
     54 H23        22.7644   50.7472   59.0280 H         1 UNN         0.0000 
     55 H24        21.0678   50.4639   58.6197 H         1 UNN         0.0000 
     56 H25        24.9127   50.2151   66.0649 H         1 UNN         0.0000 
     57 H26        25.6767   50.5356   64.4982 H         1 UNN         0.0000 
     58 H27        25.8620   48.9430   65.2855 H         1 UNN         0.0000 
@<TRIPOS>BOND
     1    1    2 ar   
     2    6    1 ar   
     3   13   32 1    
     4    3    2 ar   
     5   32   33 1    
     6    4    3 ar   
     7   33   34 ar   
     8    5    4 ar   
     9    7    4 ar   
    10    5    6 ar   
    11    9    5 ar   
    12   34   35 ar   
    13    8    7 ar   
    14    8    9 ar   
    15   10    8 1    
    16    9   15 1    
    17   10   11 2    
    18   12   10 1    
    19   12   13 1    
    20    1   14 1    
    21   35   36 ar   
    22   36   37 ar   
    23    2   22 1    
    24   37   38 ar   
    25   33   38 ar   
    26   15   16 1    
    27   16   17 1    
    28   16   21 1    
    29   35   39 1    
    30   17   18 1    
    31   39   40 1    
    32   37   41 1    
    33   18   19 1    
    34   41   42 1    
    35    3   23 1    
    36   19   20 1    
    37    6   24 1    
    38   21   20 1    
    39   13   25 1    
    40   13   26 1    
    41   16   27 1    
    42   17   28 1    
    43   17   29 1    
    44   18   30 1    
    45   18   31 1    
    46   19   43 1    
    47   20   44 1    
    48   20   45 1    
    49   21   46 1    
    50   21   47 1    
    51   32   48 1    
    52   32   49 1    
    53   34   50 1    
    54   36   51 1    
    55   38   52 1    
    56   40   53 1    
    57   40   54 1    
    58   40   55 1    
    59   42   56 1    
    60   42   57 1    
    61   42   58 1    
@<TRIPOS>SUBSTRUCTURE
     1 UNN         1 TEMP              0 ****  ****    0 ROOT 
@<TRIPOS>NORMAL
@<TRIPOS>PROPERTY_DATA
  Total_Score	| 14.4522
 Crash		| -2.2570
  Polar		| 4.1171
  Strain		| 6.7506
  Total		| 7.70163
  Ligmin		| 81.80972
  Full		| 71.71982
  Complex		| 916.99086
  Cscale		| 127.54309
  Pmove		| 0.24533
  Similarity	| -nan
  Total_Score	| 12.4984
  Crash		| -1.9151
  Polar		| 1.8545
  Similarity	| -nan
