#	Name:			2_04e_009-p0
#	Creating user name:	Mariana
#	Creation time:		Wed Jan 11 14:08:30 2017

#	Modifying user name:	Mariana
#	Modification time:	Wed Jan 11 14:08:30 2017

@<TRIPOS>MOLECULE
2_04e_009-p0
   51    54     1    15     0
SMALL
NO_CHARGES


@<TRIPOS>ATOM
      1 C          21.4004   38.6773   65.5703 C.ar      1 UNN         0.0000 
      2 C1         20.1825   39.0300   64.9526 C.ar      1 UNN         0.0000 
      3 C2         20.1394   40.1094   64.0525 C.ar      1 UNN         0.0000 
      4 C3         21.3222   40.8185   63.8012 C.ar      1 UNN         0.0000 
      5 C4         22.5428   40.5097   64.4237 C.ar      1 UNN         0.0000 
      6 C5         22.5782   39.4088   65.3071 C.ar      1 UNN         0.0000 
      7 S          21.5938   42.1302   62.7372 S.3       1 UNN         0.0000 
      8 C6         23.2721   42.3140   63.0771 C.ar      1 UNN         0.0000 
      9 C7         23.6110   41.3697   64.0692 C.ar      1 UNN         0.0000 
     10 C8         24.0692   43.2724   62.4251 C.2       1 UNN         0.0000 
     11 O          23.5353   43.9635   61.3922 O.2       1 UNN         0.0000 
     12 O1         25.3126   43.5895   62.8778 O.3       1 UNN         0.0000 
     13 C9         26.2353   44.5739   62.3823 C.3       1 UNN         0.0000 
     14 O2         24.8727   41.2490   64.6000 O.3       1 UNN         0.0000 
     15 C10        25.1723   42.1086   65.7326 C.3       1 UNN         0.0000 
     16 C11        26.7180   42.3337   65.7896 C.3       1 UNN         0.0000 
     17 C12        27.5043   41.2527   66.5840 C.3       1 UNN         0.0000 
     18 N          26.7124   40.0225   66.7814 N.3       1 UNN         0.0000 
     19 C13        25.4382   40.2285   67.5024 C.3       1 UNN         0.0000 
     20 C14        24.6619   41.5162   67.0742 C.3       1 UNN         0.0000 
     21 C15        25.5396   45.8709   61.8969 C.3       1 UNN         0.0000 
     22 O3         26.3857   47.0357   62.0287 O.3       1 UNN         0.0000 
     23 C16        25.9675   47.9371   62.9714 C.ar      1 UNN         0.0000 
     24 C17        24.6896   48.5301   62.8964 C.ar      1 UNN         0.0000 
     25 C18        24.2402   49.3861   63.9148 C.ar      1 UNN         0.0000 
     26 C19        25.0822   49.6849   65.0056 C.ar      1 UNN         0.0000 
     27 C20        26.3724   49.1268   65.0639 C.ar      1 UNN         0.0000 
     28 C21        26.8162   48.2580   64.0529 C.ar      1 UNN         0.0000 
     29 H          21.4263   37.8888   66.2166 H         1 UNN         0.0000 
     30 H1         19.3333   38.4965   65.1528 H         1 UNN         0.0000 
     31 H2         19.2671   40.3729   63.5907 H         1 UNN         0.0000 
     32 H3         23.4505   39.1306   65.7495 H         1 UNN         0.0000 
     33 H4         26.9173   44.8141   63.2002 H         1 UNN         0.0000 
     34 H5         26.8239   44.1430   61.5695 H         1 UNN         0.0000 
     35 H6         24.7072   43.0947   65.6049 H         1 UNN         0.0000 
     36 H7         27.1070   42.3857   64.7693 H         1 UNN         0.0000 
     37 H8         26.9156   43.3052   66.2502 H         1 UNN         0.0000 
     38 H9         27.7881   41.6405   67.5677 H         1 UNN         0.0000 
     39 H10        28.4241   40.9925   66.0581 H         1 UNN         0.0000 
     40 H11        26.5154   39.6098   65.8651 H         1 UNN         0.0000 
     41 H12        25.6563   40.2841   68.5671 H         1 UNN         0.0000 
     42 H13        24.8186   39.3468   67.3479 H         1 UNN         0.0000 
     43 H14        24.7911   42.2747   67.8515 H         1 UNN         0.0000 
     44 H15        23.5931   41.3089   67.0073 H         1 UNN         0.0000 
     45 H16        25.3176   45.7672   60.8327 H         1 UNN         0.0000 
     46 H17        24.5775   45.9655   62.4160 H         1 UNN         0.0000 
     47 H18        24.0704   48.3135   62.1091 H         1 UNN         0.0000 
     48 H19        23.2978   49.7786   63.8730 H         1 UNN         0.0000 
     49 H20        24.7528   50.3038   65.7481 H         1 UNN         0.0000 
     50 H21        26.9831   49.3388   65.8552 H         1 UNN         0.0000 
     51 H22        27.7468   47.8400   64.1110 H         1 UNN         0.0000 
@<TRIPOS>BOND
     1    1    2 ar   
     2    1    6 ar   
     3    1   29 1    
     4    2    3 ar   
     5    2   30 1    
     6    3    4 ar   
     7    3   31 1    
     8    4    5 ar   
     9    4    7 ar   
    10    5    6 ar   
    11    5    9 ar   
    12    6   32 1    
    13    7    8 ar   
    14    8    9 ar   
    15    8   10 1    
    16    9   14 1    
    17   10   11 2    
    18   10   12 1    
    19   12   13 1    
    20   13   21 1    
    21   13   33 1    
    22   13   34 1    
    23   14   15 1    
    24   15   16 1    
    25   15   20 1    
    26   15   35 1    
    27   16   17 1    
    28   16   36 1    
    29   16   37 1    
    30   17   18 1    
    31   17   38 1    
    32   17   39 1    
    33   18   19 1    
    34   18   40 1    
    35   19   20 1    
    36   19   41 1    
    37   19   42 1    
    38   20   43 1    
    39   20   44 1    
    40   21   22 1    
    41   21   45 1    
    42   21   46 1    
    43   22   23 1    
    44   23   24 ar   
    45   23   28 ar   
    46   24   25 ar   
    47   24   47 1    
    48   25   26 ar   
    49   25   48 1    
    50   26   27 ar   
    51   26   49 1    
    52   27   28 ar   
    53   27   50 1    
    54   28   51 1    
@<TRIPOS>SUBSTRUCTURE
     1 UNN         1 TEMP              0 ****  ****    0 ROOT 
@<TRIPOS>NORMAL
@<TRIPOS>PROPERTY_DATA
  Total_Score	| 11.4195
 Crash		| -2.0522
  Polar		| 0.3461
  Strain		| 6.7642
  Total		| 4.65532
  Ligmin		| 74.28670
  Full		| 70.00381
  Complex		| 917.67155
  Cscale		| 114.99078
  Pmove		| 0.18473
  Similarity	| -nan
  Total_Score	| 8.9020
  Crash		| -3.8579
  Polar		| 0.0565
  Similarity	| -nan
