#	Name:			2_04a_000-p0
#	Creating user name:	Mariana
#	Creation time:		Wed Jan 11 14:07:06 2017

#	Modifying user name:	Mariana
#	Modification time:	Wed Jan 11 14:07:06 2017

@<TRIPOS>MOLECULE
2_04a_000-p0
   50    53     1    15     0
SMALL
NO_CHARGES


@<TRIPOS>ATOM
      1 C          21.7155   40.1098   64.1048 C.ar      1 UNN         0.0000 
      2 C1         20.7668   40.9133   63.4375 C.ar      1 UNN         0.0000 
      3 C2         21.1699   42.0923   62.7787 C.ar      1 UNN         0.0000 
      4 C3         22.5316   42.4328   62.7936 C.ar      1 UNN         0.0000 
      5 C4         23.4918   41.6482   63.4512 C.ar      1 UNN         0.0000 
      6 C5         23.0770   40.4761   64.1182 C.ar      1 UNN         0.0000 
      7 S          23.3487   43.7575   62.0730 S.3       1 UNN         0.0000 
      8 C6         24.9336   43.3150   62.5866 C.ar      1 UNN         0.0000 
      9 C7         24.8082   42.1505   63.3687 C.ar      1 UNN         0.0000 
     10 C8         26.0908   44.0303   62.2362 C.2       1 UNN         0.0000 
     11 O          27.3172   43.5836   62.5923 O.2       1 UNN         0.0000 
     12 O1         25.9656   45.1567   61.4854 O.3       1 UNN         0.0000 
     13 C9         26.9933   46.0619   61.0639 C.3       1 UNN         0.0000 
     14 H1         21.4142   39.2570   64.5819 H         1 UNN         0.0000 
     15 O2         25.8287   41.5074   64.0143 O.3       1 UNN         0.0000 
     16 C11        26.3046   42.0512   65.2718 C.3       1 UNN         0.0000 
     17 C12        26.9750   40.8726   66.0415 C.3       1 UNN         0.0000 
     18 C13        27.3031   41.1801   67.5319 C.3       1 UNN         0.0000 
     19 N          27.2510   42.6280   67.8184 N.3       1 UNN         0.0000 
     20 C14        25.9402   43.2598   67.5267 C.3       1 UNN         0.0000 
     21 C15        25.2757   42.7596   66.2078 C.3       1 UNN         0.0000 
     22 H2         19.7835   40.6340   63.4281 H         1 UNN         0.0000 
     23 H3         20.4922   42.6802   62.2891 H         1 UNN         0.0000 
     24 H4         23.7554   39.8879   64.6069 H         1 UNN         0.0000 
     25 H5         26.5602   46.7661   60.3503 H         1 UNN         0.0000 
     26 H6         27.7763   45.5039   60.5436 H         1 UNN         0.0000 
     27 H7         27.0812   42.7841   65.0348 H         1 UNN         0.0000 
     28 C28        27.6018   46.8516   62.2524 C.3       1 UNN         0.0000 
     29 C29        26.7142   47.7623   63.0371 C.ar      1 UNN         0.0000 
     30 C30        25.3406   47.9835   62.7593 C.ar      1 UNN         0.0000 
     31 C31        24.5584   48.8190   63.5803 C.ar      1 UNN         0.0000 
     32 C32        25.1356   49.4548   64.6926 C.ar      1 UNN         0.0000 
     33 C33        26.4983   49.2625   64.9731 C.ar      1 UNN         0.0000 
     34 C34        27.2786   48.4310   64.1500 C.ar      1 UNN         0.0000 
     35 H8         27.8953   40.5977   65.5252 H         1 UNN         0.0000 
     36 H9         26.3117   40.0028   66.0093 H         1 UNN         0.0000 
     37 H10        28.3014   40.8118   67.7803 H         1 UNN         0.0000 
     38 H11        26.5916   40.6669   68.1847 H         1 UNN         0.0000 
     39 H12        27.9750   43.1001   67.2722 H         1 UNN         0.0000 
     40 H13        26.1038   44.3385   67.4711 H         1 UNN         0.0000 
     41 H14        25.2682   43.0707   68.3654 H         1 UNN         0.0000 
     42 H15        24.4748   42.0548   66.4481 H         1 UNN         0.0000 
     43 H16        24.8235   43.6107   65.6924 H         1 UNN         0.0000 
     44 H17        28.4312   47.4452   61.8603 H         1 UNN         0.0000 
     45 H18        28.0286   46.1227   62.9464 H         1 UNN         0.0000 
     46 H19        24.8869   47.5396   61.9609 H         1 UNN         0.0000 
     47 H20        23.5674   48.9592   63.3716 H         1 UNN         0.0000 
     48 H21        24.5668   50.0537   65.2966 H         1 UNN         0.0000 
     49 H22        26.9230   49.7216   65.7785 H         1 UNN         0.0000 
     50 H23        28.2657   48.2991   64.3830 H         1 UNN         0.0000 
@<TRIPOS>BOND
     1    1    2 ar   
     2    6    1 ar   
     3   13   28 1    
     4    3    2 ar   
     5   28   29 1    
     6    4    3 ar   
     7   29   30 ar   
     8    5    4 ar   
     9    7    4 ar   
    10    5    6 ar   
    11    9    5 ar   
    12   30   31 ar   
    13    8    7 ar   
    14    8    9 ar   
    15   10    8 1    
    16    9   15 1    
    17   10   11 2    
    18   12   10 1    
    19   12   13 1    
    20    1   14 1    
    21   31   32 ar   
    22   32   33 ar   
    23    2   22 1    
    24   33   34 ar   
    25   29   34 ar   
    26   15   16 1    
    27   16   17 1    
    28   16   21 1    
    29    3   23 1    
    30   17   18 1    
    31    6   24 1    
    32   13   25 1    
    33   18   19 1    
    34   13   26 1    
    35   16   27 1    
    36   19   20 1    
    37   17   35 1    
    38   20   21 1    
    39   17   36 1    
    40   18   37 1    
    41   18   38 1    
    42   19   39 1    
    43   20   40 1    
    44   20   41 1    
    45   21   42 1    
    46   21   43 1    
    47   28   44 1    
    48   28   45 1    
    49   30   46 1    
    50   31   47 1    
    51   32   48 1    
    52   33   49 1    
    53   34   50 1    
@<TRIPOS>SUBSTRUCTURE
     1 UNN         1 TEMP              0 ****  ****    0 ROOT 
@<TRIPOS>NORMAL
@<TRIPOS>PROPERTY_DATA
  Total_Score	| 11.1930
 Crash		| -1.8460
  Polar		| 1.1467
  Strain		| 4.8296
  Total		| 6.36342
  Ligmin		| 70.90905
  Full		| 62.37540
  Complex		| 889.34221
  Cscale		| 115.49899
  Pmove		| 0.27425
  Similarity	| -nan
  Total_Score	| 9.3822
  Crash		| -2.6574
  Polar		| 0.7804
  Similarity	| -nan
