#	Name:			2_04b_004-p0
#	Creating user name:	Mariana
#	Creation time:		Wed Jan 11 14:07:31 2017

#	Modifying user name:	Mariana
#	Modification time:	Wed Jan 11 14:07:31 2017

@<TRIPOS>MOLECULE
2_04b_004-p0
   54    57     1    15     0
SMALL
NO_CHARGES


@<TRIPOS>ATOM
      1 C          21.6974   40.1128   63.8667 C.ar      1 UNN         0.0000 
      2 C1         20.8120   41.0632   63.3168 C.ar      1 UNN         0.0000 
      3 C2         21.3085   42.2622   62.7675 C.ar      1 UNN         0.0000 
      4 C3         22.6941   42.4838   62.7926 C.ar      1 UNN         0.0000 
      5 C4         23.5937   41.5640   63.3590 C.ar      1 UNN         0.0000 
      6 C5         23.0855   40.3559   63.8800 C.ar      1 UNN         0.0000 
      7 S          23.6036   43.8050   62.1854 S.3       1 UNN         0.0000 
      8 C6         25.1486   43.1944   62.6396 C.ar      1 UNN         0.0000 
      9 C7         24.9421   41.9854   63.3314 C.ar      1 UNN         0.0000 
     10 C8         26.3660   43.8337   62.3491 C.2       1 UNN         0.0000 
     11 O          27.5479   43.2056   62.5524 O.2       1 UNN         0.0000 
     12 O1         26.3366   45.1036   61.8741 O.3       1 UNN         0.0000 
     13 C9         27.4158   45.9776   61.5259 C.3       1 UNN         0.0000 
     14 H1         21.3286   39.2467   64.2643 H         1 UNN         0.0000 
     15 O2         25.9779   41.2898   63.8997 O.3       1 UNN         0.0000 
     16 C11        26.2861   41.4859   65.3044 C.3       1 UNN         0.0000 
     17 C12        25.4063   40.6166   66.2460 C.3       1 UNN         0.0000 
     18 C13        25.9157   40.6459   67.7165 C.3       1 UNN         0.0000 
     19 N          26.8039   41.7948   68.0249 N.3       1 UNN         0.0000 
     20 C14        26.4216   43.0731   67.3873 C.3       1 UNN         0.0000 
     21 C15        26.3511   42.9589   65.8342 C.3       1 UNN         0.0000 
     22 H2         19.8101   40.8703   63.3057 H         1 UNN         0.0000 
     23 H3         20.6778   42.9500   62.3510 H         1 UNN         0.0000 
     24 H4         23.7140   39.6477   64.2546 H         1 UNN         0.0000 
     25 H5         27.2272   46.3969   60.5348 H         1 UNN         0.0000 
     26 H6         28.3662   45.4381   61.4862 H         1 UNN         0.0000 
     27 H7         27.3001   41.0831   65.4018 H         1 UNN         0.0000 
     28 H8         25.3935   39.5830   65.8952 H         1 UNN         0.0000 
     29 H9         24.3814   40.9991   66.2207 H         1 UNN         0.0000 
     30 C30        27.5191   47.1111   62.5752 C.3       1 UNN         0.0000 
     31 C31        26.2927   47.9039   62.9004 C.ar      1 UNN         0.0000 
     32 C32        25.1022   47.8737   62.1291 C.ar      1 UNN         0.0000 
     33 C33        23.9714   48.6370   62.4935 C.ar      1 UNN         0.0000 
     34 C34        24.0141   49.4190   63.6631 C.ar      1 UNN         0.0000 
     35 C35        25.1890   49.4766   64.4324 C.ar      1 UNN         0.0000 
     36 C36        26.3194   48.7324   64.0494 C.ar      1 UNN         0.0000 
     37 O37        22.8114   48.6017   61.7613 O.3       1 UNN         0.0000 
     38 C38        22.9693   49.0014   60.3857 C.3       1 UNN         0.0000 
     39 H10        26.4847   39.7373   67.9234 H         1 UNN         0.0000 
     40 H11        25.0611   40.6633   68.3951 H         1 UNN         0.0000 
     41 H12        27.7543   41.5647   67.7272 H         1 UNN         0.0000 
     42 H13        27.1500   43.8327   67.6728 H         1 UNN         0.0000 
     43 H14        25.4484   43.3800   67.7857 H         1 UNN         0.0000 
     44 H15        25.4662   43.5064   65.5029 H         1 UNN         0.0000 
     45 H16        27.2236   43.4515   65.3985 H         1 UNN         0.0000 
     46 H17        28.2946   47.8051   62.2458 H         1 UNN         0.0000 
     47 H18        27.8719   46.6441   63.4976 H         1 UNN         0.0000 
     48 H19        25.0442   47.3063   61.2847 H         1 UNN         0.0000 
     49 H20        23.1911   49.9520   63.9517 H         1 UNN         0.0000 
     50 H21        25.2224   50.0559   65.2771 H         1 UNN         0.0000 
     51 H22        27.1613   48.7877   64.6274 H         1 UNN         0.0000 
     52 H23        21.9793   49.0456   59.9312 H         1 UNN         0.0000 
     53 H24        23.5670   48.2751   59.8320 H         1 UNN         0.0000 
     54 H25        23.4284   49.9865   60.2992 H         1 UNN         0.0000 
@<TRIPOS>BOND
     1    1    2 ar   
     2    6    1 ar   
     3   13   30 1    
     4    3    2 ar   
     5   30   31 1    
     6    4    3 ar   
     7   31   32 ar   
     8    5    4 ar   
     9    7    4 ar   
    10    5    6 ar   
    11    9    5 ar   
    12   32   33 ar   
    13    8    7 ar   
    14    8    9 ar   
    15   10    8 1    
    16    9   15 1    
    17   10   11 2    
    18   12   10 1    
    19   12   13 1    
    20    1   14 1    
    21   33   34 ar   
    22   34   35 ar   
    23    2   22 1    
    24   35   36 ar   
    25   31   36 ar   
    26   15   16 1    
    27   16   17 1    
    28   16   21 1    
    29   33   37 1    
    30   17   18 1    
    31   37   38 1    
    32    3   23 1    
    33   18   19 1    
    34    6   24 1    
    35   13   25 1    
    36   19   20 1    
    37   13   26 1    
    38   21   20 1    
    39   16   27 1    
    40   17   28 1    
    41   17   29 1    
    42   18   39 1    
    43   18   40 1    
    44   19   41 1    
    45   20   42 1    
    46   20   43 1    
    47   21   44 1    
    48   21   45 1    
    49   30   46 1    
    50   30   47 1    
    51   32   48 1    
    52   34   49 1    
    53   35   50 1    
    54   36   51 1    
    55   38   52 1    
    56   38   53 1    
    57   38   54 1    
@<TRIPOS>SUBSTRUCTURE
     1 UNN         1 TEMP              0 ****  ****    0 ROOT 
@<TRIPOS>NORMAL
@<TRIPOS>PROPERTY_DATA
  Total_Score	| 12.9443
 Crash		| -1.7866
  Polar		| 2.7296
  Strain		| 0.7751
  Total		| 12.16923
  Ligmin		| 83.59477
  Full		| 67.67630
  Complex		| 904.69789
  Cscale		| 121.22503
  Pmove		| 0.26185
  Similarity	| -nan
  Total_Score	| 10.2268
  Crash		| -2.2865
  Polar		| 0.2673
  Similarity	| -nan
