#	Name:			2_04d_002-p0
#	Creating user name:	Mariana
#	Creation time:		Wed Jan 11 14:08:12 2017

#	Modifying user name:	Mariana
#	Modification time:	Wed Jan 11 14:08:12 2017

@<TRIPOS>MOLECULE
2_04d_002-p0
   53    56     1    15     0
SMALL
NO_CHARGES


@<TRIPOS>ATOM
      1 C          21.4630   38.6510   65.4832 C.ar      1 UNN         0.0000 
      2 C1         20.2544   39.0780   64.8953 C.ar      1 UNN         0.0000 
      3 C2         20.2440   40.1846   64.0238 C.ar      1 UNN         0.0000 
      4 C3         21.4519   40.8571   63.7763 C.ar      1 UNN         0.0000 
      5 C4         22.6638   40.4632   64.3672 C.ar      1 UNN         0.0000 
      6 C5         22.6657   39.3375   65.2161 C.ar      1 UNN         0.0000 
      7 S          21.7711   42.2242   62.7899 S.3       1 UNN         0.0000 
      8 C6         23.4618   42.3065   63.1131 C.ar      1 UNN         0.0000 
      9 C7         23.7655   41.2861   64.0384 C.ar      1 UNN         0.0000 
     10 C8         24.3278   43.2747   62.5712 C.2       1 UNN         0.0000 
     11 O          25.6560   43.0297   62.4855 O.2       1 UNN         0.0000 
     12 O1         23.8286   44.4766   62.1797 O.3       1 UNN         0.0000 
     13 C9         24.5416   45.6339   61.7197 C.3       1 UNN         0.0000 
     14 O2         25.0060   41.1288   64.6128 O.3       1 UNN         0.0000 
     15 C15        25.2989   42.0274   65.7194 C.3       1 UNN         0.0000 
     16 C16        26.8441   42.2405   65.8076 C.3       1 UNN         0.0000 
     17 C17        27.5845   41.2546   66.7557 C.3       1 UNN         0.0000 
     18 N18        26.8192   40.0131   66.9623 N.3       1 UNN         0.0000 
     19 C19        25.4740   40.2069   67.5550 C.3       1 UNN         0.0000 
     20 C20        24.7369   41.4898   67.0665 C.3       1 UNN         0.0000 
     21 H1         21.4680   37.8379   66.1022 H         1 UNN         0.0000 
     22 H2         19.3858   38.5788   65.0980 H         1 UNN         0.0000 
     23 H3         19.3761   40.4935   63.5870 H         1 UNN         0.0000 
     24 H4         23.5345   39.0070   65.6312 H         1 UNN         0.0000 
     25 H5         24.3447   45.7727   60.6571 H         1 UNN         0.0000 
     26 H6         25.6214   45.5163   61.8442 H         1 UNN         0.0000 
     27 H7         24.8549   43.0158   65.5438 H         1 UNN         0.0000 
     28 H8         27.0450   43.2581   66.1555 H         1 UNN         0.0000 
     29 C29        24.0787   46.8802   62.5132 C.3       1 UNN         0.0000 
     30 C30        22.5871   47.2604   62.3042 C.3       1 UNN         0.0000 
     31 C31        22.2741   47.6352   60.8984 C.ar      1 UNN         0.0000 
     32 C32        22.4160   48.9749   60.4635 C.ar      1 UNN         0.0000 
     33 C33        22.1234   49.3335   59.1350 C.ar      1 UNN         0.0000 
     34 C34        21.6922   48.3552   58.2211 C.ar      1 UNN         0.0000 
     35 C35        21.5632   47.0166   58.6337 C.ar      1 UNN         0.0000 
     36 C36        21.8523   46.6601   59.9634 C.ar      1 UNN         0.0000 
     37 H9         27.2734   42.1615   64.8059 H         1 UNN         0.0000 
     38 H10        27.7519   41.7251   67.7291 H         1 UNN         0.0000 
     39 H11        28.5615   40.9969   66.3420 H         1 UNN         0.0000 
     40 H12        26.7140   39.5365   66.0623 H         1 UNN         0.0000 
     41 H13        25.5792   40.2471   68.6379 H         1 UNN         0.0000 
     42 H14        24.8826   39.3212   67.3295 H         1 UNN         0.0000 
     43 H15        24.8598   42.2726   67.8216 H         1 UNN         0.0000 
     44 H16        23.6652   41.2992   66.9769 H         1 UNN         0.0000 
     45 H17        24.7110   47.7301   62.2403 H         1 UNN         0.0000 
     46 H18        24.2387   46.6835   63.5770 H         1 UNN         0.0000 
     47 H19        22.3468   48.1011   62.9616 H         1 UNN         0.0000 
     48 H20        21.9508   46.4319   62.6289 H         1 UNN         0.0000 
     49 H21        22.7332   49.6969   61.1147 H         1 UNN         0.0000 
     50 H22        22.2222   50.3064   58.8343 H         1 UNN         0.0000 
     51 H23        21.4723   48.6161   57.2583 H         1 UNN         0.0000 
     52 H24        21.2582   46.3025   57.9677 H         1 UNN         0.0000 
     53 H25        21.7715   45.6791   60.2416 H         1 UNN         0.0000 
@<TRIPOS>BOND
     1    1    2 ar   
     2    6    1 ar   
     3   14   15 1    
     4    3    2 ar   
     5   15   16 1    
     6    4    3 ar   
     7   16   17 1    
     8    5    4 ar   
     9    7    4 ar   
    10    5    6 ar   
    11    9    5 ar   
    12   17   18 1    
    13    8    7 ar   
    14    9    8 ar   
    15    8   10 1    
    16    9   14 1    
    17   10   11 2    
    18   10   12 1    
    19   12   13 1    
    20    1   21 1    
    21   18   19 1    
    22   19   20 1    
    23   15   20 1    
    24   13   29 1    
    25   29   30 1    
    26   30   31 1    
    27   31   32 ar   
    28   32   33 ar   
    29   33   34 ar   
    30   34   35 ar   
    31   35   36 ar   
    32   31   36 ar   
    33    2   22 1    
    34    3   23 1    
    35    6   24 1    
    36   13   25 1    
    37   13   26 1    
    38   15   27 1    
    39   16   28 1    
    40   16   37 1    
    41   17   38 1    
    42   17   39 1    
    43   18   40 1    
    44   19   41 1    
    45   19   42 1    
    46   20   43 1    
    47   20   44 1    
    48   29   45 1    
    49   29   46 1    
    50   30   47 1    
    51   30   48 1    
    52   32   49 1    
    53   33   50 1    
    54   34   51 1    
    55   35   52 1    
    56   36   53 1    
@<TRIPOS>SUBSTRUCTURE
     1 UNN         1 TEMP              0 ****  ****    0 ROOT 
@<TRIPOS>NORMAL
@<TRIPOS>PROPERTY_DATA
  Total_Score	| 11.6055
 Crash		| -1.4205
  Polar		| 0.7829
  Strain		| 1.9734
  Total		| 9.63212
  Ligmin		| 74.61763
  Full		| 62.41058
  Complex		| 892.44007
  Cscale		| 121.90547
  Pmove		| 0.18383
  Similarity	| -nan
  Total_Score	| 9.7650
  Crash		| -2.5042
  Polar		| 0.0700
  Similarity	| -nan
