#	Name:			2_06c_005-p0
#	Creating user name:	Mariana
#	Creation time:		Wed Jan 11 14:09:22 2017

#	Modifying user name:	Mariana
#	Modification time:	Wed Jan 11 14:09:22 2017

@<TRIPOS>MOLECULE
2_06c_005-p0
   52    55     1    15     0
SMALL
NO_CHARGES


@<TRIPOS>ATOM
      1 C          21.3595   38.5375   65.4886 C.ar      1 UNN         0.0000 
      2 C1         20.0739   38.9131   65.0470 C.ar      1 UNN         0.0000 
      3 C2         19.9118   40.0409   64.2201 C.ar      1 UNN         0.0000 
      4 C3         21.0516   40.7706   63.8471 C.ar      1 UNN         0.0000 
      5 C4         22.3401   40.4190   64.2775 C.ar      1 UNN         0.0000 
      6 C5         22.4916   39.2916   65.1134 C.ar      1 UNN         0.0000 
      7 S          21.1904   42.1869   62.8896 S.3       1 UNN         0.0000 
      8 C6         22.9038   42.3442   63.0068 C.ar      1 UNN         0.0000 
      9 C7         23.3567   41.2979   63.8364 C.ar      1 UNN         0.0000 
     10 C8         23.6478   43.3597   62.4359 C.2       1 UNN         0.0000 
     11 O          24.8499   43.1939   62.2632 O.2       1 UNN         0.0000 
     12 N          23.0818   44.5299   62.1717 N.am      1 UNN         0.0000 
     13 C9         23.7803   45.7182   61.7914 C.3       1 UNN         0.0000 
     14 O1         24.6597   41.1735   64.2498 O.3       1 UNN         0.0000 
     15 C10        24.8966   41.5601   65.6277 C.3       1 UNN         0.0000 
     16 C11        25.3927   43.0344   65.7716 C.3       1 UNN         0.0000 
     17 C12        26.0893   43.3292   67.1362 C.3       1 UNN         0.0000 
     18 N1         25.7958   42.2828   68.1411 N.3       1 UNN         0.0000 
     19 C13        26.1958   40.9110   67.7392 C.3       1 UNN         0.0000 
     20 C14        25.9436   40.5913   66.2356 C.3       1 UNN         0.0000 
     21 H1         21.4677   37.7201   66.0905 H         1 UNN         0.0000 
     22 H2         19.2562   38.3703   65.3348 H         1 UNN         0.0000 
     23 H3         18.9850   40.3282   63.9095 H         1 UNN         0.0000 
     24 H4         23.4136   39.0203   65.4589 H         1 UNN         0.0000 
     25 H5         22.1302   44.6146   62.3469 H         1 UNN         0.0000 
     26 H6         23.9709   45.7101   60.7149 H         1 UNN         0.0000 
     27 H7         24.7381   45.7409   62.3140 H         1 UNN         0.0000 
     28 H8         23.9860   41.4445   66.2314 H         1 UNN         0.0000 
     29 C29        22.9755   46.9849   62.1708 C.3       1 UNN         0.0000 
     30 O30        23.7147   48.2108   61.9703 O.3       1 UNN         0.0000 
     31 C31        24.5768   48.5471   62.9840 C.ar      1 UNN         0.0000 
     32 C32        25.9420   48.2028   62.8880 C.ar      1 UNN         0.0000 
     33 C33        26.8373   48.5538   63.9162 C.ar      1 UNN         0.0000 
     34 C34        26.3755   49.2721   65.0341 C.ar      1 UNN         0.0000 
     35 C35        25.0226   49.6489   65.1223 C.ar      1 UNN         0.0000 
     36 C36        24.1269   49.2931   64.0955 C.ar      1 UNN         0.0000 
     37 H9         24.5397   43.7068   65.6485 H         1 UNN         0.0000 
     38 H10        26.1023   43.2542   64.9709 H         1 UNN         0.0000 
     39 H11        25.7522   44.2913   67.5290 H         1 UNN         0.0000 
     40 H12        27.1730   43.3881   66.9997 H         1 UNN         0.0000 
     41 H13        24.7923   42.3024   68.3306 H         1 UNN         0.0000 
     42 H14        25.6186   40.2163   68.3521 H         1 UNN         0.0000 
     43 H15        27.2528   40.7654   67.9752 H         1 UNN         0.0000 
     44 H16        26.8802   40.6843   65.6785 H         1 UNN         0.0000 
     45 H17        25.5990   39.5585   66.1322 H         1 UNN         0.0000 
     46 H18        22.6132   46.9087   63.2019 H         1 UNN         0.0000 
     47 H19        22.0972   47.0342   61.5250 H         1 UNN         0.0000 
     48 H20        26.2847   47.6889   62.0738 H         1 UNN         0.0000 
     49 H21        27.8215   48.2853   63.8531 H         1 UNN         0.0000 
     50 H22        27.0264   49.5244   65.7789 H         1 UNN         0.0000 
     51 H23        24.6928   50.1844   65.9289 H         1 UNN         0.0000 
     52 H24        23.1474   49.5766   64.1592 H         1 UNN         0.0000 
@<TRIPOS>BOND
     1    1    2 ar   
     2    6    1 ar   
     3   29   13 1    
     4    3    2 ar   
     5   30   29 1    
     6    4    3 ar   
     7   31   30 1    
     8    5    4 ar   
     9    7    4 ar   
    10    5    6 ar   
    11    9    5 ar   
    12   32   31 ar   
    13    8    7 ar   
    14    8    9 ar   
    15   10    8 1    
    16    9   14 1    
    17   10   11 2    
    18   12   10 am   
    19   13   12 1    
    20   33   32 ar   
    21    1   21 1    
    22   34   33 ar   
    23   35   36 ar   
    24   14   15 1    
    25   15   16 1    
    26   15   20 1    
    27   34   35 ar   
    28   16   17 1    
    29   31   36 ar   
    30    2   22 1    
    31   17   18 1    
    32    3   23 1    
    33    6   24 1    
    34   18   19 1    
    35   12   25 1    
    36   20   19 1    
    37   13   26 1    
    38   13   27 1    
    39   15   28 1    
    40   16   37 1    
    41   16   38 1    
    42   17   39 1    
    43   17   40 1    
    44   18   41 1    
    45   19   42 1    
    46   19   43 1    
    47   20   44 1    
    48   20   45 1    
    49   29   46 1    
    50   29   47 1    
    51   32   48 1    
    52   33   49 1    
    53   34   50 1    
    54   35   51 1    
    55   36   52 1    
@<TRIPOS>SUBSTRUCTURE
     1 UNN         1 TEMP              0 ****  ****    0 ROOT 
@<TRIPOS>NORMAL
@<TRIPOS>PROPERTY_DATA
  Total_Score	| 12.3754
 Crash		| -1.7993
  Polar		| 0.6131
  Strain		| 1.5866
  Total		| 10.78879
  Ligmin		| 78.94001
  Full		| 65.19873
  Complex		| 910.77333
  Cscale		| 112.49457
  Pmove		| 0.23820
  Similarity	| -nan
  Total_Score	| 8.5557
  Crash		| -3.1634
  Polar		| 0.2252
  Similarity	| -nan
