#	Name:			2_06a_009-p0
#	Creating user name:	Mariana
#	Creation time:		Wed Jan 11 14:08:48 2017

#	Modifying user name:	Mariana
#	Modification time:	Wed Jan 11 14:08:48 2017

@<TRIPOS>MOLECULE
2_06a_009-p0
   51    54     1    15     0
SMALL
NO_CHARGES


@<TRIPOS>ATOM
      1 C          26.4837   49.0695   64.7264 C.ar      1 UNN         0.0000 
      2 C1         25.3462   49.8988   64.6420 C.ar      1 UNN         0.0000 
      3 C2         24.1477   49.4102   64.0873 C.ar      1 UNN         0.0000 
      4 C3         24.1204   48.0874   63.6193 C.ar      1 UNN         0.0000 
      5 C4         25.2512   47.2542   63.6586 C.ar      1 UNN         0.0000 
      6 C5         26.4381   47.7480   64.2392 C.ar      1 UNN         0.0000 
      7 S          22.8067   47.1650   63.0182 S.3       1 UNN         0.0000 
      8 C6         23.6961   45.7096   62.7681 C.ar      1 UNN         0.0000 
      9 C7         25.0299   45.9578   63.1450 C.ar      1 UNN         0.0000 
     10 C8         23.1366   44.5111   62.3869 C.2       1 UNN         0.0000 
     11 O          23.5957   43.9105   61.4243 O.2       1 UNN         0.0000 
     12 N          22.1982   43.9749   63.1563 N.am      1 UNN         0.0000 
     13 C9         21.5807   42.6932   62.9917 C.3       1 UNN         0.0000 
     14 O1         25.9634   44.9616   63.2430 O.3       1 UNN         0.0000 
     15 C10        26.7587   44.6773   62.0737 C.3       1 UNN         0.0000 
     16 C11        27.2479   43.2050   62.2166 C.3       1 UNN         0.0000 
     17 C12        28.4848   42.8590   61.3405 C.3       1 UNN         0.0000 
     18 N1         28.7135   43.8566   60.2723 N.3       1 UNN         0.0000 
     19 C13        28.9029   45.2464   60.7470 C.3       1 UNN         0.0000 
     20 C14        27.9665   45.6447   61.9265 C.3       1 UNN         0.0000 
     21 H1         27.3406   49.4251   65.1499 H         1 UNN         0.0000 
     22 H2         25.3887   50.8506   65.0076 H         1 UNN         0.0000 
     23 H3         23.3095   49.9941   64.0469 H         1 UNN         0.0000 
     24 H4         27.2633   47.1528   64.3291 H         1 UNN         0.0000 
     25 H5         21.9354   44.4860   63.9384 H         1 UNN         0.0000 
     26 H6         21.1966   42.6166   61.9718 H         1 UNN         0.0000 
     27 H7         20.7184   42.6818   63.6606 H         1 UNN         0.0000 
     28 C28        22.5121   41.4764   63.3017 C.3       1 UNN         0.0000 
     29 C29        21.9184   40.4268   64.1780 C.ar      1 UNN         0.0000 
     30 C30        22.6774   39.8334   65.2177 C.ar      1 UNN         0.0000 
     31 C31        22.1212   38.8447   66.0488 C.ar      1 UNN         0.0000 
     32 C32        20.7874   38.4387   65.8576 C.ar      1 UNN         0.0000 
     33 C33        20.0237   39.0070   64.8252 C.ar      1 UNN         0.0000 
     34 C34        20.5850   39.9864   63.9859 C.ar      1 UNN         0.0000 
     35 H8         26.1577   44.7420   61.1605 H         1 UNN         0.0000 
     36 H9         26.4207   42.5370   61.9614 H         1 UNN         0.0000 
     37 H10        27.5051   43.0102   63.2627 H         1 UNN         0.0000 
     38 H11        28.3545   41.8766   60.8810 H         1 UNN         0.0000 
     39 H12        29.3737   42.8110   61.9739 H         1 UNN         0.0000 
     40 H13        27.9165   43.8451   59.6320 H         1 UNN         0.0000 
     41 H14        28.7207   45.9048   59.8970 H         1 UNN         0.0000 
     42 H15        29.9462   45.3766   61.0477 H         1 UNN         0.0000 
     43 H16        28.5396   45.6303   62.8566 H         1 UNN         0.0000 
     44 H17        27.6053   46.6647   61.7690 H         1 UNN         0.0000 
     45 H18        23.4378   41.8476   63.7520 H         1 UNN         0.0000 
     46 H19        22.7961   41.0053   62.3582 H         1 UNN         0.0000 
     47 H20        23.6483   40.1172   65.3780 H         1 UNN         0.0000 
     48 H21        22.6788   38.4280   66.7953 H         1 UNN         0.0000 
     49 H22        20.3767   37.7274   66.4647 H         1 UNN         0.0000 
     50 H23        19.0570   38.7083   64.6916 H         1 UNN         0.0000 
     51 H24        20.0119   40.3870   63.2390 H         1 UNN         0.0000 
@<TRIPOS>BOND
     1    1    2 ar   
     2    6    1 ar   
     3   13   28 1    
     4    3    2 ar   
     5   28   29 1    
     6    4    3 ar   
     7   29   30 ar   
     8    5    4 ar   
     9    7    4 ar   
    10    5    6 ar   
    11    9    5 ar   
    12   30   31 ar   
    13    8    7 ar   
    14    8    9 ar   
    15   10    8 1    
    16    9   14 1    
    17   10   11 2    
    18   12   10 am   
    19   12   13 1    
    20   31   32 ar   
    21    1   21 1    
    22   32   33 ar   
    23   33   34 ar   
    24   14   15 1    
    25   15   16 1    
    26   15   20 1    
    27   29   34 ar   
    28   16   17 1    
    29    2   22 1    
    30    3   23 1    
    31   17   18 1    
    32    6   24 1    
    33   12   25 1    
    34   18   19 1    
    35   13   26 1    
    36   20   19 1    
    37   13   27 1    
    38   15   35 1    
    39   16   36 1    
    40   16   37 1    
    41   17   38 1    
    42   17   39 1    
    43   18   40 1    
    44   19   41 1    
    45   19   42 1    
    46   20   43 1    
    47   20   44 1    
    48   28   45 1    
    49   28   46 1    
    50   30   47 1    
    51   31   48 1    
    52   32   49 1    
    53   33   50 1    
    54   34   51 1    
@<TRIPOS>SUBSTRUCTURE
     1 UNN         1 TEMP              0 ****  ****    0 ROOT 
@<TRIPOS>NORMAL
@<TRIPOS>PROPERTY_DATA
  Total_Score	| 11.6788
 Crash		| -2.2278
  Polar		| 1.6451
  Strain		| 6.9602
  Total		| 4.71858
  Ligmin		| 76.63967
  Full		| 71.40054
  Complex		| 907.38704
  Cscale		| 117.45365
  Pmove		| 0.20813
  Similarity	| -nan
  Total_Score	| 8.3446
  Crash		| -4.6232
  Polar		| 1.0465
  Similarity	| -nan
