#	Name:			2_06b_003-p0
#	Creating user name:	Mariana
#	Creation time:		Wed Jan 11 14:09:04 2017

#	Modifying user name:	Mariana
#	Modification time:	Wed Jan 11 14:09:04 2017

@<TRIPOS>MOLECULE
2_06b_003-p0
   54    57     1    15     0
SMALL
NO_CHARGES


@<TRIPOS>ATOM
      1 C          21.2657   38.5274   65.5930 C.ar      1 UNN         0.0000 
      2 C1         20.0188   38.9317   65.0754 C.ar      1 UNN         0.0000 
      3 C2         19.9413   40.0488   64.2245 C.ar      1 UNN         0.0000 
      4 C3         21.1236   40.7405   63.9207 C.ar      1 UNN         0.0000 
      5 C4         22.3751   40.3879   64.4493 C.ar      1 UNN         0.0000 
      6 C5         22.4381   39.2482   65.2839 C.ar      1 UNN         0.0000 
      7 S          21.3561   42.0869   62.8920 S.3       1 UNN         0.0000 
      8 C6         23.0595   42.2427   63.1226 C.ar      1 UNN         0.0000 
      9 C7         23.4338   41.2533   64.0618 C.ar      1 UNN         0.0000 
     10 C8         23.7999   43.2109   62.4554 C.2       1 UNN         0.0000 
     11 O          23.2496   43.7988   61.5342 O.2       1 UNN         0.0000 
     12 N          25.0562   43.4976   62.7799 N.am      1 UNN         0.0000 
     13 C9         25.9125   44.5622   62.3188 C.3       1 UNN         0.0000 
     14 O1         24.7309   41.0867   64.4843 O.3       1 UNN         0.0000 
     15 C10        25.0037   41.1638   65.9099 C.3       1 UNN         0.0000 
     16 C11        25.4424   42.5914   66.3811 C.3       1 UNN         0.0000 
     17 C12        26.9739   42.7182   66.5877 C.3       1 UNN         0.0000 
     18 N1         27.5274   41.6626   67.4751 N.3       1 UNN         0.0000 
     19 C13        26.8344   40.3516   67.5191 C.3       1 UNN         0.0000 
     20 C14        26.0650   40.0616   66.2106 C.3       1 UNN         0.0000 
     21 C15        25.2660   45.8747   61.7813 C.3       1 UNN         0.0000 
     22 C16        26.1652   47.1466   61.8634 C.3       1 UNN         0.0000 
     23 C17        25.7705   48.0676   62.9675 C.ar      1 UNN         0.0000 
     24 C18        26.6930   48.4836   63.9561 C.ar      1 UNN         0.0000 
     25 C19        26.2787   49.3113   65.0178 C.ar      1 UNN         0.0000 
     26 C20        24.9438   49.7435   65.1011 C.ar      1 UNN         0.0000 
     27 C21        24.0235   49.3630   64.1088 C.ar      1 UNN         0.0000 
     28 C22        24.4364   48.5375   63.0490 C.ar      1 UNN         0.0000 
     29 H          21.3160   37.7057   66.1958 H         1 UNN         0.0000 
     30 H1         19.1717   38.4086   65.3111 H         1 UNN         0.0000 
     31 H2         19.0479   40.3502   63.8381 H         1 UNN         0.0000 
     32 H3         23.3277   38.9317   65.6693 H         1 UNN         0.0000 
     33 H4         25.4517   42.9268   63.4545 H         1 UNN         0.0000 
     34 H5         26.5467   44.8230   63.1680 H         1 UNN         0.0000 
     35 H6         26.5680   44.1500   61.5487 H         1 UNN         0.0000 
     36 H7         24.1157   40.9080   66.4981 H         1 UNN         0.0000 
     37 H8         25.1012   43.3512   65.6773 H         1 UNN         0.0000 
     38 H9         24.9645   42.8119   67.3411 H         1 UNN         0.0000 
     39 H10        27.2117   43.6905   67.0229 H         1 UNN         0.0000 
     40 H11        27.4713   42.6516   65.6169 H         1 UNN         0.0000 
     41 H12        28.5160   41.5254   67.2542 H         1 UNN         0.0000 
     42 H13        26.1293   40.3560   68.3523 H         1 UNN         0.0000 
     43 H14        27.5708   39.5657   67.7003 H         1 UNN         0.0000 
     44 H15        25.5843   39.0816   66.2754 H         1 UNN         0.0000 
     45 H16        26.7945   40.0206   65.3993 H         1 UNN         0.0000 
     46 H17        25.0000   45.7148   60.7350 H         1 UNN         0.0000 
     47 H18        24.3347   46.0563   62.3223 H         1 UNN         0.0000 
     48 H19        27.2120   46.8436   61.9531 H         1 UNN         0.0000 
     49 H20        26.0856   47.7027   60.9246 H         1 UNN         0.0000 
     50 H21        27.6648   48.1668   63.9239 H         1 UNN         0.0000 
     51 H22        26.9461   49.5858   65.7405 H         1 UNN         0.0000 
     52 H23        24.6400   50.3335   65.8793 H         1 UNN         0.0000 
     53 H24        23.0536   49.6824   64.1594 H         1 UNN         0.0000 
     54 H25        23.7507   48.2736   62.3363 H         1 UNN         0.0000 
@<TRIPOS>BOND
     1    1    2 ar   
     2    1    6 ar   
     3    1   29 1    
     4    2    3 ar   
     5    2   30 1    
     6    3    4 ar   
     7    3   31 1    
     8    4    5 ar   
     9    4    7 ar   
    10    5    6 ar   
    11    5    9 ar   
    12    6   32 1    
    13    7    8 ar   
    14    8    9 ar   
    15    8   10 1    
    16    9   14 1    
    17   10   11 2    
    18   10   12 am   
    19   12   13 1    
    20   12   33 1    
    21   13   21 1    
    22   13   34 1    
    23   13   35 1    
    24   14   15 1    
    25   15   16 1    
    26   15   20 1    
    27   15   36 1    
    28   16   17 1    
    29   16   37 1    
    30   16   38 1    
    31   17   18 1    
    32   17   39 1    
    33   17   40 1    
    34   18   19 1    
    35   18   41 1    
    36   19   20 1    
    37   19   42 1    
    38   19   43 1    
    39   20   44 1    
    40   20   45 1    
    41   21   22 1    
    42   21   46 1    
    43   21   47 1    
    44   22   23 1    
    45   22   48 1    
    46   22   49 1    
    47   23   24 ar   
    48   23   28 ar   
    49   24   25 ar   
    50   24   50 1    
    51   25   26 ar   
    52   25   51 1    
    53   26   27 ar   
    54   26   52 1    
    55   27   28 ar   
    56   27   53 1    
    57   28   54 1    
@<TRIPOS>SUBSTRUCTURE
     1 UNN         1 TEMP              0 ****  ****    0 ROOT 
@<TRIPOS>NORMAL
@<TRIPOS>PROPERTY_DATA
  Total_Score	| 13.4487
 Crash		| -2.0647
  Polar		| 1.2259
  Strain		| 8.4177
  Total		| 5.03097
  Ligmin		| 78.74505
  Full		| 73.19276
  Complex		| 913.83665
  Cscale		| 120.06613
  Pmove		| 0.20189
  Similarity	| -nan
  Total_Score	| 10.1693
  Crash		| -3.1801
  Polar		| 0.3258
  Similarity	| -nan
