#	Name:			2_09c_002-p0
#	Creating user name:	Mariana
#	Creation time:		Wed Jan 11 14:10:17 2017

#	Modifying user name:	Mariana
#	Modification time:	Wed Jan 11 14:10:17 2017

@<TRIPOS>MOLECULE
2_09c_002-p0
   53    57     1    15     0
SMALL
NO_CHARGES


@<TRIPOS>ATOM
      1 C          21.3466   38.5951   65.4323 C.ar      1 UNN         0.0000 
      2 C1         20.1573   39.0918   64.8616 C.ar      1 UNN         0.0000 
      3 C2         20.1907   40.2358   64.0399 C.ar      1 UNN         0.0000 
      4 C3         21.4245   40.8670   63.8147 C.ar      1 UNN         0.0000 
      5 C4         22.6207   40.3929   64.3775 C.ar      1 UNN         0.0000 
      6 C5         22.5775   39.2450   65.1993 C.ar      1 UNN         0.0000 
      7 S          21.7973   42.2624   62.8872 S.3       1 UNN         0.0000 
      8 C6         23.4934   42.2402   63.1854 C.ar      1 UNN         0.0000 
      9 C7         23.7604   41.1621   64.0470 C.ar      1 UNN         0.0000 
     10 C8         24.4138   43.1693   62.6776 C.ar      1 UNN         0.0000 
     11 O          25.7569   43.0184   62.6650 O.3       1 UNN         0.0000 
     12 N          24.1109   44.3677   62.1655 N.ar      1 UNN         0.0000 
     13 O1         25.0210   40.8936   64.5107 O.3       1 UNN         0.0000 
     14 C14        25.2764   41.2803   65.8828 C.3       1 UNN         0.0000 
     15 C15        25.4854   42.8129   66.0702 C.3       1 UNN         0.0000 
     16 C16        25.8728   43.1409   67.5334 C.3       1 UNN         0.0000 
     17 N17        27.0437   42.3472   67.9674 N.3       1 UNN         0.0000 
     18 C18        26.9116   40.8829   67.8073 C.3       1 UNN         0.0000 
     19 C19        26.5414   40.5132   66.3499 C.3       1 UNN         0.0000 
     20 N2         26.2810   44.0984   62.1592 N.ar      1 UNN         0.0000 
     21 C9         25.2826   44.9412   61.8506 C.ar      1 UNN         0.0000 
     22 C10        25.4524   46.3044   61.3190 C.3       1 UNN         0.0000 
     23 C11        25.2539   47.3204   62.3910 C.ar      1 UNN         0.0000 
     24 C17        26.3492   48.0435   62.9242 C.ar      1 UNN         0.0000 
     25 C12        26.1553   48.9742   63.9613 C.ar      1 UNN         0.0000 
     26 C13        24.8686   49.2071   64.4742 C.ar      1 UNN         0.0000 
     27 C20        23.7620   48.5179   63.9380 C.ar      1 UNN         0.0000 
     28 C21        23.9618   47.5723   62.9127 C.ar      1 UNN         0.0000 
     29 O2         22.5110   48.7270   64.4589 O.3       1 UNN         0.0000 
     30 C22        21.7163   49.6508   63.6974 C.3       1 UNN         0.0000 
     31 H1         21.3133   37.7631   66.0220 H         1 UNN         0.0000 
     32 H2         19.2695   38.6228   65.0585 H         1 UNN         0.0000 
     33 H3         19.3343   40.6012   63.6222 H         1 UNN         0.0000 
     34 H4         23.4282   38.8815   65.6320 H         1 UNN         0.0000 
     35 H5         24.4472   40.9647   66.5264 H         1 UNN         0.0000 
     36 H6         24.5737   43.3536   65.8128 H         1 UNN         0.0000 
     37 H7         26.2832   43.1576   65.4058 H         1 UNN         0.0000 
     38 H8         25.0277   42.9314   68.1951 H         1 UNN         0.0000 
     39 H9         26.1158   44.2023   67.6178 H         1 UNN         0.0000 
     40 H10        27.2633   42.5765   68.9401 H         1 UNN         0.0000 
     41 H11        26.1418   40.5056   68.4846 H         1 UNN         0.0000 
     42 H12        27.8628   40.4136   68.0726 H         1 UNN         0.0000 
     43 H13        26.3687   39.4357   66.2803 H         1 UNN         0.0000 
     44 H14        27.3809   40.7647   65.6962 H         1 UNN         0.0000 
     45 H15        24.7378   46.4709   60.5092 H         1 UNN         0.0000 
     46 H16        26.4523   46.3893   60.8856 H         1 UNN         0.0000 
     47 H17        27.2962   47.8852   62.5726 H         1 UNN         0.0000 
     48 H18        26.9565   49.4782   64.3501 H         1 UNN         0.0000 
     49 H19        24.7369   49.8801   65.2347 H         1 UNN         0.0000 
     50 H20        23.1526   47.0668   62.5442 H         1 UNN         0.0000 
     51 H21        22.1776   50.6392   63.6775 H         1 UNN         0.0000 
     52 H22        20.7460   49.7419   64.1838 H         1 UNN         0.0000 
     53 H23        21.5578   49.2992   62.6750 H         1 UNN         0.0000 
@<TRIPOS>BOND
     1    1    2 ar   
     2    6    1 ar   
     3   13   14 1    
     4    3    2 ar   
     5   14   15 1    
     6    4    3 ar   
     7   15   16 1    
     8    5    4 ar   
     9    7    4 ar   
    10    5    6 ar   
    11    9    5 ar   
    12   16   17 1    
    13    8    7 ar   
    14    9    8 ar   
    15    8   10 1    
    16    9   13 1    
    17   10   11 ar   
    18   10   12 ar   
    19   11   20 ar   
    20   12   21 ar   
    21   17   18 1    
    22   18   19 1    
    23   14   19 1    
    24    1   31 1    
    25    2   32 1    
    26    3   33 1    
    27    6   34 1    
    28   14   35 1    
    29   15   36 1    
    30   15   37 1    
    31   16   38 1    
    32   16   39 1    
    33   17   40 1    
    34   18   41 1    
    35   18   42 1    
    36   19   43 1    
    37   19   44 1    
    38   21   20 ar   
    39   21   22 1    
    40   22   23 1    
    41   22   45 1    
    42   22   46 1    
    43   23   24 ar   
    44   23   28 ar   
    45   24   25 ar   
    46   24   47 1    
    47   25   26 ar   
    48   25   48 1    
    49   26   27 ar   
    50   26   49 1    
    51   28   27 ar   
    52   27   29 1    
    53   28   50 1    
    54   29   30 1    
    55   30   51 1    
    56   30   52 1    
    57   30   53 1    
@<TRIPOS>SUBSTRUCTURE
     1 UNN         1 TEMP              0 ****  ****    0 ROOT 
@<TRIPOS>NORMAL
@<TRIPOS>PROPERTY_DATA
  Total_Score	| 15.4861
 Crash		| -1.2986
  Polar		| 2.7234
  Strain		| 0.6354
  Total		| 14.85068
  Ligmin		| 80.39303
  Full		| 60.58802
  Complex		| 906.85079
  Cscale		| 112.29694
  Pmove		| 0.25628
  Similarity	| -nan
  Total_Score	| 11.2403
  Crash		| -3.6943
  Polar		| 1.1821
  Similarity	| -nan
