#	Name:			2_09e_001-p0
#	Creating user name:	Mariana
#	Creation time:		Wed Jan 11 14:11:02 2017

#	Modifying user name:	Mariana
#	Modification time:	Wed Jan 11 14:11:02 2017

@<TRIPOS>MOLECULE
2_09e_001-p0
   57    61     1    15     0
SMALL
NO_CHARGES


@<TRIPOS>ATOM
      1 C          21.5051   38.7570   65.4736 C.ar      1 UNN         0.0000 
      2 C1         20.2986   39.2093   64.8992 C.ar      1 UNN         0.0000 
      3 C2         20.2988   40.3231   64.0385 C.ar      1 UNN         0.0000 
      4 C3         21.5183   40.9684   63.7759 C.ar      1 UNN         0.0000 
      5 C4         22.7306   40.5391   64.3423 C.ar      1 UNN         0.0000 
      6 C5         22.7208   39.4184   65.1995 C.ar      1 UNN         0.0000 
      7 S          21.8497   42.3396   62.7995 S.3       1 UNN         0.0000 
      8 C6         23.5467   42.3759   63.0936 C.ar      1 UNN         0.0000 
      9 C7         23.8466   41.3292   63.9869 C.ar      1 UNN         0.0000 
     10 C8         24.4305   43.3251   62.5523 C.ar      1 UNN         0.0000 
     11 O          25.7789   43.2774   62.6326 O.3       1 UNN         0.0000 
     12 N          24.0821   44.4468   61.9061 N.ar      1 UNN         0.0000 
     13 O1         25.1052   41.0783   64.4755 O.3       1 UNN         0.0000 
     14 C14        25.5407   41.9380   65.5557 C.3       1 UNN         0.0000 
     15 C15        27.0652   41.7202   65.7620 C.3       1 UNN         0.0000 
     16 C16        27.6078   42.5952   66.9209 C.3       1 UNN         0.0000 
     17 N17        26.8223   42.4240   68.1653 N.3       1 UNN         0.0000 
     18 C18        25.3583   42.5819   68.0110 C.3       1 UNN         0.0000 
     19 C19        24.7953   41.6727   66.8945 C.3       1 UNN         0.0000 
     20 N2         26.2606   44.3459   62.0666 N.ar      1 UNN         0.0000 
     21 C9         25.2299   45.0795   61.6200 C.ar      1 UNN         0.0000 
     22 C10        25.3484   46.3745   60.9254 C.3       1 UNN         0.0000 
     23 C11        24.4445   47.4125   61.4873 C.ar      1 UNN         0.0000 
     24 C17        23.4086   47.9670   60.7026 C.ar      1 UNN         0.0000 
     25 C12        22.5654   48.9765   61.2127 C.ar      1 UNN         0.0000 
     26 C13        22.7337   49.3998   62.5460 C.ar      1 UNN         0.0000 
     27 C20        23.7509   48.8570   63.3557 C.ar      1 UNN         0.0000 
     28 C21        24.5997   47.8640   62.8181 C.ar      1 UNN         0.0000 
     29 O2         23.8003   49.2380   64.6734 O.3       1 UNN         0.0000 
     30 C22        25.0763   49.6965   65.1517 C.3       1 UNN         0.0000 
     31 O3         21.5065   49.4757   60.4965 O.3       1 UNN         0.0000 
     32 C23        21.8072   49.9486   59.1704 C.3       1 UNN         0.0000 
     33 H1         21.4948   37.9502   66.0984 H         1 UNN         0.0000 
     34 H2         19.4205   38.7301   65.1125 H         1 UNN         0.0000 
     35 H3         19.4308   40.6583   63.6209 H         1 UNN         0.0000 
     36 H4         23.5854   39.0858   65.6312 H         1 UNN         0.0000 
     37 H5         25.3957   42.9907   65.2846 H         1 UNN         0.0000 
     38 H6         27.5990   41.9771   64.8440 H         1 UNN         0.0000 
     39 H7         27.2588   40.6659   65.9820 H         1 UNN         0.0000 
     40 H8         27.5882   43.6487   66.6287 H         1 UNN         0.0000 
     41 H9         28.6446   42.3225   67.1294 H         1 UNN         0.0000 
     42 H10        27.1574   43.0705   68.8742 H         1 UNN         0.0000 
     43 H11        25.1357   43.6272   67.7809 H         1 UNN         0.0000 
     44 H12        24.8775   42.3292   68.9571 H         1 UNN         0.0000 
     45 H13        23.7292   41.8774   66.7785 H         1 UNN         0.0000 
     46 H14        24.9124   40.6250   67.1850 H         1 UNN         0.0000 
     47 H15        25.1329   46.2035   59.8701 H         1 UNN         0.0000 
     48 H16        26.3777   46.7360   60.9881 H         1 UNN         0.0000 
     49 H17        23.2532   47.6251   59.7519 H         1 UNN         0.0000 
     50 H18        22.0912   50.0911   62.9405 H         1 UNN         0.0000 
     51 H19        25.3257   47.4536   63.4073 H         1 UNN         0.0000 
     52 H20        25.4941   50.4802   64.5142 H         1 UNN         0.0000 
     53 H21        25.7869   48.8715   65.2311 H         1 UNN         0.0000 
     54 H22        24.9267   50.1099   66.1480 H         1 UNN         0.0000 
     55 H23        22.6182   50.6801   59.1771 H         1 UNN         0.0000 
     56 H24        20.9143   50.4288   58.7707 H         1 UNN         0.0000 
     57 H25        22.0688   49.1247   58.5040 H         1 UNN         0.0000 
@<TRIPOS>BOND
     1    1    2 ar   
     2    6    1 ar   
     3   13   14 1    
     4    3    2 ar   
     5   14   15 1    
     6    4    3 ar   
     7   15   16 1    
     8    5    4 ar   
     9    7    4 ar   
    10    5    6 ar   
    11    9    5 ar   
    12   16   17 1    
    13    8    7 ar   
    14    9    8 ar   
    15    8   10 1    
    16    9   13 1    
    17   10   11 ar   
    18   10   12 ar   
    19   11   20 ar   
    20   12   21 ar   
    21   17   18 1    
    22   18   19 1    
    23   14   19 1    
    24    1   33 1    
    25    2   34 1    
    26    3   35 1    
    27    6   36 1    
    28   14   37 1    
    29   15   38 1    
    30   15   39 1    
    31   16   40 1    
    32   16   41 1    
    33   17   42 1    
    34   18   43 1    
    35   18   44 1    
    36   19   45 1    
    37   19   46 1    
    38   21   20 ar   
    39   21   22 1    
    40   22   23 1    
    41   22   47 1    
    42   22   48 1    
    43   23   24 ar   
    44   23   28 ar   
    45   24   25 ar   
    46   24   49 1    
    47   25   26 ar   
    48   25   31 1    
    49   26   27 ar   
    50   26   50 1    
    51   28   27 ar   
    52   27   29 1    
    53   28   51 1    
    54   29   30 1    
    55   30   52 1    
    56   30   53 1    
    57   30   54 1    
    58   31   32 1    
    59   32   55 1    
    60   32   56 1    
    61   32   57 1    
@<TRIPOS>SUBSTRUCTURE
     1 UNN         1 TEMP              0 ****  ****    0 ROOT 
@<TRIPOS>NORMAL
@<TRIPOS>PROPERTY_DATA
  Total_Score	| 17.1427
 Crash		| -1.8429
  Polar		| 4.4407
  Strain		| 2.3094
  Total		| 14.83328
  Ligmin		| 84.98234
  Full		| 66.27467
  Complex		| 933.90216
  Cscale		| 120.43535
  Pmove		| 0.21466
  Similarity	| -nan
  Total_Score	| 11.1336
  Crash		| -3.5388
  Polar		| 1.1808
  Similarity	| -nan
