#	Name:			2_09d_004-p0
#	Creating user name:	Mariana
#	Creation time:		Wed Jan 11 14:10:38 2017

#	Modifying user name:	Mariana
#	Modification time:	Wed Jan 11 14:10:38 2017

@<TRIPOS>MOLECULE
2_09d_004-p0
   49    53     1    15     0
SMALL
NO_CHARGES


@<TRIPOS>ATOM
      1 C          26.4497   49.0441   64.8154 C.ar      1 UNN         0.0000 
      2 C1         25.2985   49.8509   64.6930 C.ar      1 UNN         0.0000 
      3 C2         24.0919   49.3004   64.2198 C.ar      1 UNN         0.0000 
      4 C3         24.0682   47.9387   63.8769 C.ar      1 UNN         0.0000 
      5 C4         25.2078   47.1213   63.9669 C.ar      1 UNN         0.0000 
      6 C5         26.4056   47.6786   64.4620 C.ar      1 UNN         0.0000 
      7 S          22.7487   46.9605   63.3764 S.3       1 UNN         0.0000 
      8 C6         23.6450   45.4960   63.2545 C.ar      1 UNN         0.0000 
      9 C7         24.9870   45.7837   63.5689 C.ar      1 UNN         0.0000 
     10 C8         23.0595   44.2456   62.9962 C.ar      1 UNN         0.0000 
     11 O          21.7458   44.0348   62.7486 O.3       1 UNN         0.0000 
     12 N          23.6757   43.0567   63.0484 N.ar      1 UNN         0.0000 
     13 O1         25.9619   44.8195   63.6124 O.3       1 UNN         0.0000 
     14 C14        26.6904   44.5731   62.3847 C.3       1 UNN         0.0000 
     15 C15        27.2135   43.1056   62.4384 C.3       1 UNN         0.0000 
     16 C16        28.4296   42.8261   61.5094 C.3       1 UNN         0.0000 
     17 N17        28.5873   43.8609   60.4644 N.3       1 UNN         0.0000 
     18 C18        28.7631   45.2379   60.9766 C.3       1 UNN         0.0000 
     19 C19        27.8694   45.5714   62.2060 C.3       1 UNN         0.0000 
     20 N2         21.5532   42.7526   62.6306 N.ar      1 UNN         0.0000 
     21 C9         22.7290   42.1354   62.8220 C.ar      1 UNN         0.0000 
     22 C10        22.9274   40.6766   62.8389 C.3       1 UNN         0.0000 
     23 C11        23.2803   40.1802   64.1954 C.ar      1 UNN         0.0000 
     24 C17        22.3415   39.4660   64.9748 C.ar      1 UNN         0.0000 
     25 C12        22.6972   38.9674   66.2416 C.ar      1 UNN         0.0000 
     26 C13        23.9910   39.1812   66.7521 C.ar      1 UNN         0.0000 
     27 C20        24.9293   39.9082   65.9970 C.ar      1 UNN         0.0000 
     28 C21        24.5743   40.4048   64.7263 C.ar      1 UNN         0.0000 
     29 Cl         26.4861   40.1743   66.6018 Cl        1 UNN         0.0000 
     30 H1         27.3179   49.4505   65.1740 H         1 UNN         0.0000 
     31 H2         25.3375   50.8332   64.9620 H         1 UNN         0.0000 
     32 H3         23.2446   49.8682   64.1453 H         1 UNN         0.0000 
     33 H4         27.2419   47.1027   64.5770 H         1 UNN         0.0000 
     34 H5         26.0297   44.6568   61.5139 H         1 UNN         0.0000 
     35 H6         26.3942   42.4365   62.1670 H         1 UNN         0.0000 
     36 H7         27.5050   42.8601   63.4651 H         1 UNN         0.0000 
     37 H8         28.3130   41.8540   61.0261 H         1 UNN         0.0000 
     38 H9         29.3441   42.7877   62.1063 H         1 UNN         0.0000 
     39 H10        27.7656   43.8530   59.8563 H         1 UNN         0.0000 
     40 H11        28.5303   45.9204   60.1571 H         1 UNN         0.0000 
     41 H12        29.8152   45.3829   61.2344 H         1 UNN         0.0000 
     42 H13        27.4830   46.5873   62.1026 H         1 UNN         0.0000 
     43 H14        28.4845   45.5361   63.1099 H         1 UNN         0.0000 
     44 H15        23.7189   40.4131   62.1340 H         1 UNN         0.0000 
     45 H16        22.0116   40.1964   62.4810 H         1 UNN         0.0000 
     46 H17        21.3973   39.2963   64.6253 H         1 UNN         0.0000 
     47 H18        22.0093   38.4454   66.7941 H         1 UNN         0.0000 
     48 H19        24.2413   38.8030   67.6686 H         1 UNN         0.0000 
     49 H20        25.2703   40.9173   64.1753 H         1 UNN         0.0000 
@<TRIPOS>BOND
     1    1    2 ar   
     2    6    1 ar   
     3   13   14 1    
     4    3    2 ar   
     5   14   15 1    
     6    4    3 ar   
     7   15   16 1    
     8    5    4 ar   
     9    7    4 ar   
    10    5    6 ar   
    11    9    5 ar   
    12   16   17 1    
    13    8    7 ar   
    14    9    8 ar   
    15    8   10 1    
    16    9   13 1    
    17   10   11 ar   
    18   10   12 ar   
    19   11   20 ar   
    20   12   21 ar   
    21   17   18 1    
    22   18   19 1    
    23   14   19 1    
    24    1   30 1    
    25    2   31 1    
    26    3   32 1    
    27    6   33 1    
    28   14   34 1    
    29   15   35 1    
    30   15   36 1    
    31   16   37 1    
    32   16   38 1    
    33   17   39 1    
    34   18   40 1    
    35   18   41 1    
    36   19   42 1    
    37   19   43 1    
    38   21   20 ar   
    39   21   22 1    
    40   22   23 1    
    41   22   44 1    
    42   22   45 1    
    43   23   24 ar   
    44   23   28 ar   
    45   24   25 ar   
    46   24   46 1    
    47   25   26 ar   
    48   25   47 1    
    49   26   27 ar   
    50   26   48 1    
    51   28   27 ar   
    52   27   29 1    
    53   28   49 1    
@<TRIPOS>SUBSTRUCTURE
     1 UNN         1 TEMP              0 ****  ****    0 ROOT 
@<TRIPOS>NORMAL
@<TRIPOS>PROPERTY_DATA
  Total_Score	| 13.3478
 Crash		| -1.7621
  Polar		| 3.7261
  Strain		| 0.9326
  Total		| 12.41516
  Ligmin		| 82.03603
  Full		| 65.68142
  Complex		| 893.93971
  Cscale		| 107.88927
  Pmove		| 0.27267
  Similarity	| -nan
  Total_Score	| 7.3838
  Crash		| -4.7044
  Polar		| 1.8508
  Similarity	| -nan
