#	Name:			2_09b_003-p0
#	Creating user name:	Mariana
#	Creation time:		Wed Jan 11 14:09:53 2017

#	Modifying user name:	Mariana
#	Modification time:	Wed Jan 11 14:09:53 2017

@<TRIPOS>MOLECULE
2_09b_003-p0
   52    56     1    15     0
SMALL
NO_CHARGES


@<TRIPOS>ATOM
      1 C          21.1599   38.4773   65.6055 C.ar      1 UNN         0.0000 
      2 C1         19.9103   38.9110   65.1185 C.ar      1 UNN         0.0000 
      3 C2         19.8291   40.0547   64.3036 C.ar      1 UNN         0.0000 
      4 C3         21.0117   40.7453   63.9991 C.ar      1 UNN         0.0000 
      5 C4         22.2672   40.3515   64.4915 C.ar      1 UNN         0.0000 
      6 C5         22.3370   39.1946   65.2989 C.ar      1 UNN         0.0000 
      7 S          21.2389   42.1432   63.0342 S.3       1 UNN         0.0000 
      8 C6         22.9418   42.2525   63.2533 C.ar      1 UNN         0.0000 
      9 C7         23.3325   41.2052   64.1110 C.ar      1 UNN         0.0000 
     10 C8         23.7086   43.2523   62.6397 C.ar      1 UNN         0.0000 
     11 O          23.2479   44.0624   61.6607 O.3       1 UNN         0.0000 
     12 N          24.9825   43.5763   62.8976 N.ar      1 UNN         0.0000 
     13 O1         24.6365   40.9935   64.4862 O.3       1 UNN         0.0000 
     14 C14        24.9508   41.2896   65.8690 C.3       1 UNN         0.0000 
     15 C15        25.3990   42.7648   66.0707 C.3       1 UNN         0.0000 
     16 C16        25.8281   43.0154   67.5351 C.3       1 UNN         0.0000 
     17 N17        26.8686   42.0517   67.9594 N.3       1 UNN         0.0000 
     18 C18        26.5217   40.6212   67.7783 C.3       1 UNN         0.0000 
     19 C19        26.0918   40.3309   66.3180 C.3       1 UNN         0.0000 
     20 N2         24.2097   44.8660   61.3137 N.ar      1 UNN         0.0000 
     21 C9         25.2799   44.5949   62.0779 C.ar      1 UNN         0.0000 
     22 C10        26.5943   45.2546   61.9778 C.3       1 UNN         0.0000 
     23 C11        26.5608   46.7922   61.7478 C.3       1 UNN         0.0000 
     24 C17        26.0089   47.5882   62.8802 C.ar      1 UNN         0.0000 
     25 C12        26.8727   48.2824   63.7676 C.ar      1 UNN         0.0000 
     26 C13        26.3503   49.0772   64.8061 C.ar      1 UNN         0.0000 
     27 C20        24.9639   49.2188   64.9573 C.ar      1 UNN         0.0000 
     28 C21        24.0918   48.5388   64.0834 C.ar      1 UNN         0.0000 
     29 C22        24.6146   47.7373   63.0513 C.ar      1 UNN         0.0000 
     30 H1         21.2099   37.6420   66.1883 H         1 UNN         0.0000 
     31 H2         19.0603   38.3939   65.3575 H         1 UNN         0.0000 
     32 H3         18.9295   40.3801   63.9502 H         1 UNN         0.0000 
     33 H4         23.2320   38.8714   65.6705 H         1 UNN         0.0000 
     34 H5         24.0930   41.1011   66.5240 H         1 UNN         0.0000 
     35 H6         24.5765   43.4419   65.8163 H         1 UNN         0.0000 
     36 H7         26.2422   42.9924   65.4089 H         1 UNN         0.0000 
     37 H8         24.9645   42.9199   68.1946 H         1 UNN         0.0000 
     38 H9         26.2264   44.0271   67.6340 H         1 UNN         0.0000 
     39 H10        27.1116   42.2324   68.9428 H         1 UNN         0.0000 
     40 H11        25.7094   40.3540   68.4531 H         1 UNN         0.0000 
     41 H12        27.3921   40.0129   68.0329 H         1 UNN         0.0000 
     42 H13        25.7493   39.2932   66.2445 H         1 UNN         0.0000 
     43 H14        26.9530   40.4469   65.6530 H         1 UNN         0.0000 
     44 H15        27.1091   44.8001   61.1277 H         1 UNN         0.0000 
     45 H16        27.1809   45.0339   62.8744 H         1 UNN         0.0000 
     46 H17        25.9927   47.0139   60.8385 H         1 UNN         0.0000 
     47 H18        27.5879   47.1062   61.5459 H         1 UNN         0.0000 
     48 H19        27.8864   48.2040   63.6697 H         1 UNN         0.0000 
     49 H20        26.9832   49.5633   65.4433 H         1 UNN         0.0000 
     50 H21        24.5851   49.8043   65.7046 H         1 UNN         0.0000 
     51 H22        23.0803   48.6415   64.1911 H         1 UNN         0.0000 
     52 H23        23.9627   47.2773   62.4151 H         1 UNN         0.0000 
@<TRIPOS>BOND
     1    1    2 ar   
     2    6    1 ar   
     3   13   14 1    
     4    3    2 ar   
     5   14   15 1    
     6    4    3 ar   
     7   15   16 1    
     8    5    4 ar   
     9    7    4 ar   
    10    5    6 ar   
    11    9    5 ar   
    12   16   17 1    
    13    8    7 ar   
    14    9    8 ar   
    15    8   10 1    
    16    9   13 1    
    17   10   11 ar   
    18   10   12 ar   
    19   11   20 ar   
    20   12   21 ar   
    21   17   18 1    
    22   18   19 1    
    23   14   19 1    
    24    1   30 1    
    25    2   31 1    
    26    3   32 1    
    27    6   33 1    
    28   14   34 1    
    29   15   35 1    
    30   15   36 1    
    31   16   37 1    
    32   16   38 1    
    33   17   39 1    
    34   18   40 1    
    35   18   41 1    
    36   19   42 1    
    37   19   43 1    
    38   21   20 ar   
    39   21   22 1    
    40   22   23 1    
    41   22   44 1    
    42   22   45 1    
    43   23   24 1    
    44   23   46 1    
    45   23   47 1    
    46   24   25 ar   
    47   24   29 ar   
    48   25   26 ar   
    49   25   48 1    
    50   26   27 ar   
    51   26   49 1    
    52   27   28 ar   
    53   27   50 1    
    54   29   28 ar   
    55   28   51 1    
    56   29   52 1    
@<TRIPOS>SUBSTRUCTURE
     1 UNN         1 TEMP              0 ****  ****    0 ROOT 
@<TRIPOS>NORMAL
@<TRIPOS>PROPERTY_DATA
  Total_Score	| 13.7175
 Crash		| -1.6006
  Polar		| 0.7763
  Strain		| 4.4844
  Total		| 9.23311
  Ligmin		| 74.17832
  Full		| 62.64428
  Complex		| 911.63589
  Cscale		| 110.75950
  Pmove		| 0.23346
  Similarity	| -nan
  Total_Score	| 10.1838
  Crash		| -3.8142
  Polar		| 0.2540
  Similarity	| -nan
