#	Name:			2_09a_005-p0
#	Creating user name:	Mariana
#	Creation time:		Wed Jan 11 14:09:39 2017

#	Modifying user name:	Mariana
#	Modification time:	Wed Jan 11 14:09:39 2017

@<TRIPOS>MOLECULE
2_09a_005-p0
   49    53     1    15     0
SMALL
NO_CHARGES


@<TRIPOS>ATOM
      1 C          25.4562   40.0046   67.3433 C.ar      1 UNN         0.0000 
      2 C1         26.7504   39.6293   67.7630 C.ar      1 UNN         0.0000 
      3 C2         27.8847   40.2462   67.2024 C.ar      1 UNN         0.0000 
      4 C3         27.6916   41.2293   66.2200 C.ar      1 UNN         0.0000 
      5 C4         26.4132   41.6147   65.7776 C.ar      1 UNN         0.0000 
      6 C5         25.2839   41.0010   66.3592 C.ar      1 UNN         0.0000 
      7 S          28.8552   42.1863   65.3998 S.3       1 UNN         0.0000 
      8 C6         27.7185   43.0790   64.4667 C.ar      1 UNN         0.0000 
      9 C7         26.4243   42.6236   64.7880 C.ar      1 UNN         0.0000 
     10 C8         28.0802   44.1409   63.6316 C.ar      1 UNN         0.0000 
     11 O          29.3378   44.5132   63.3033 O.3       1 UNN         0.0000 
     12 N          27.2238   45.0265   63.1174 N.ar      1 UNN         0.0000 
     13 O1         25.2804   43.1864   64.2698 O.3       1 UNN         0.0000 
     14 C14        24.8937   42.7749   62.9321 C.3       1 UNN         0.0000 
     15 C15        24.2468   43.9902   62.2032 C.3       1 UNN         0.0000 
     16 C16        22.8746   44.4180   62.7995 C.3       1 UNN         0.0000 
     17 N17        22.3352   43.4453   63.7708 N.3       1 UNN         0.0000 
     18 C18        22.4294   42.0248   63.3631 C.3       1 UNN         0.0000 
     19 C19        23.8760   41.5949   62.9641 C.3       1 UNN         0.0000 
     20 N2         29.2616   45.6065   62.5971 N.ar      1 UNN         0.0000 
     21 C9         27.9645   45.9355   62.4799 C.ar      1 UNN         0.0000 
     22 C10        27.4138   47.1452   61.8496 C.3       1 UNN         0.0000 
     23 C11        26.6067   47.9405   62.8184 C.ar      1 UNN         0.0000 
     24 C17        25.2190   48.1485   62.6287 C.ar      1 UNN         0.0000 
     25 C12        24.4645   48.8791   63.5673 C.ar      1 UNN         0.0000 
     26 C13        25.0846   49.4079   64.7133 C.ar      1 UNN         0.0000 
     27 C20        26.4602   49.2073   64.9159 C.ar      1 UNN         0.0000 
     28 C21        27.2158   48.4853   63.9744 C.ar      1 UNN         0.0000 
     29 H1         24.6383   39.5576   67.7613 H         1 UNN         0.0000 
     30 H2         26.8682   38.9140   68.4836 H         1 UNN         0.0000 
     31 H3         28.8255   39.9927   67.5101 H         1 UNN         0.0000 
     32 H4         24.3409   41.2777   66.0817 H         1 UNN         0.0000 
     33 H5         25.7700   42.4703   62.3455 H         1 UNN         0.0000 
     34 H6         24.0976   43.7229   61.1551 H         1 UNN         0.0000 
     35 H7         24.9296   44.8409   62.2172 H         1 UNN         0.0000 
     36 H8         22.1435   44.5593   61.9991 H         1 UNN         0.0000 
     37 H9         22.9829   45.3717   63.3220 H         1 UNN         0.0000 
     38 H10        22.8616   43.5636   64.6374 H         1 UNN         0.0000 
     39 H11        21.7474   41.8624   62.5238 H         1 UNN         0.0000 
     40 H12        22.0764   41.4105   64.1945 H         1 UNN         0.0000 
     41 H13        23.8405   41.1422   61.9702 H         1 UNN         0.0000 
     42 H14        24.2384   40.8190   63.6407 H         1 UNN         0.0000 
     43 H15        26.8145   46.8362   60.9894 H         1 UNN         0.0000 
     44 H16        28.2369   47.7575   61.4789 H         1 UNN         0.0000 
     45 H17        24.7457   47.7636   61.8076 H         1 UNN         0.0000 
     46 H18        23.4628   49.0212   63.4193 H         1 UNN         0.0000 
     47 H19        24.5366   49.9321   65.4004 H         1 UNN         0.0000 
     48 H20        26.9123   49.5813   65.7510 H         1 UNN         0.0000 
     49 H21        28.2142   48.3431   64.1459 H         1 UNN         0.0000 
@<TRIPOS>BOND
     1    1    2 ar   
     2    6    1 ar   
     3   13   14 1    
     4    3    2 ar   
     5   14   15 1    
     6    4    3 ar   
     7   15   16 1    
     8    5    4 ar   
     9    7    4 ar   
    10    5    6 ar   
    11    9    5 ar   
    12   16   17 1    
    13    8    7 ar   
    14    9    8 ar   
    15    8   10 1    
    16    9   13 1    
    17   10   11 ar   
    18   10   12 ar   
    19   11   20 ar   
    20   12   21 ar   
    21   17   18 1    
    22   18   19 1    
    23   14   19 1    
    24    1   29 1    
    25    2   30 1    
    26    3   31 1    
    27    6   32 1    
    28   14   33 1    
    29   15   34 1    
    30   15   35 1    
    31   16   36 1    
    32   16   37 1    
    33   17   38 1    
    34   18   39 1    
    35   18   40 1    
    36   19   41 1    
    37   19   42 1    
    38   21   20 ar   
    39   21   22 1    
    40   22   23 1    
    41   22   43 1    
    42   22   44 1    
    43   23   24 ar   
    44   23   28 ar   
    45   24   25 ar   
    46   24   45 1    
    47   25   26 ar   
    48   25   46 1    
    49   26   27 ar   
    50   26   47 1    
    51   28   27 ar   
    52   27   48 1    
    53   28   49 1    
@<TRIPOS>SUBSTRUCTURE
     1 UNN         1 TEMP              0 ****  ****    0 ROOT 
@<TRIPOS>NORMAL
@<TRIPOS>PROPERTY_DATA
  Total_Score	| 9.1689
 Crash		| -2.3926
  Polar		| 0.8984
  Strain		| 1.3144
  Total		| 7.85454
  Ligmin		| 81.85005
  Full		| 71.98969
  Complex		| 897.61519
  Cscale		| 113.94597
  Pmove		| 0.28343
  Similarity	| -nan
  Total_Score	| 7.0166
  Crash		| -3.5258
  Polar		| 1.0985
  Similarity	| -nan
