#	Name:			2_14c_004-p0
#	Creating user name:	Mariana
#	Creation time:		Wed Jan 11 14:11:52 2017

#	Modifying user name:	Mariana
#	Modification time:	Wed Jan 11 14:11:52 2017

@<TRIPOS>MOLECULE
2_14c_004-p0
   57    61     1    15     0
SMALL
NO_CHARGES


@<TRIPOS>ATOM
      1 C          21.5539   38.6779   65.3821 C.ar      1 UNN         0.0000 
      2 C1         20.3496   39.1287   64.8013 C.ar      1 UNN         0.0000 
      3 C2         20.3473   40.2692   63.9744 C.ar      1 UNN         0.0000 
      4 C3         21.5567   40.9525   63.7692 C.ar      1 UNN         0.0000 
      5 C4         22.7632   40.5392   64.3586 C.ar      1 UNN         0.0000 
      6 C5         22.7590   39.3752   65.1544 C.ar      1 UNN         0.0000 
      7 S          21.8841   42.3496   62.8286 S.3       1 UNN         0.0000 
      8 C6         23.5684   42.4259   63.1804 C.ar      1 UNN         0.0000 
      9 C9         23.8649   41.3791   64.0772 C.ar      1 UNN         0.0000 
     10 C7         24.4341   43.4040   62.6594 C.ar      1 UNN         0.0000 
     11 N          25.7630   43.4630   62.8459 N.ar      1 UNN         0.0000 
     12 N1         24.0587   44.4490   61.9079 N.ar      1 UNN         0.0000 
     13 O          25.1031   41.2048   64.6525 O.3       1 UNN         0.0000 
     14 C14        25.3913   42.0699   65.7867 C.3       1 UNN         0.0000 
     15 C15        26.9407   42.2201   65.9296 C.3       1 UNN         0.0000 
     16 C16        27.6162   41.1460   66.8311 C.3       1 UNN         0.0000 
     17 N17        26.7758   39.9442   66.9765 N.3       1 UNN         0.0000 
     18 C18        25.4435   40.1989   67.5778 C.3       1 UNN         0.0000 
     19 C19        24.7747   41.5226   67.1056 C.3       1 UNN         0.0000 
     20 O1         26.2212   44.5234   62.2469 O.3       1 UNN         0.0000 
     21 C12        25.1764   45.1476   61.6629 C.ar      1 UNN         0.0000 
     22 C13        25.2625   46.4059   60.9037 C.3       1 UNN         0.0000 
     23 C8         24.3787   47.4636   61.4593 C.ar      1 UNN         0.0000 
     24 C10        23.3359   48.0146   60.6807 C.ar      1 UNN         0.0000 
     25 C11        22.5044   49.0352   61.1888 C.ar      1 UNN         0.0000 
     26 C17        22.6916   49.4731   62.5151 C.ar      1 UNN         0.0000 
     27 C22        23.7152   48.9335   63.3204 C.ar      1 UNN         0.0000 
     28 C23        24.5532   47.9314   62.7828 C.ar      1 UNN         0.0000 
     29 O2         23.7740   49.3245   64.6346 O.3       1 UNN         0.0000 
     30 C20        25.0639   49.7281   65.1257 C.3       1 UNN         0.0000 
     31 O3         21.4438   49.5339   60.4751 O.3       1 UNN         0.0000 
     32 C21        21.7343   49.9364   59.1225 C.3       1 UNN         0.0000 
     33 H1         21.5540   37.8385   65.9647 H         1 UNN         0.0000 
     34 H2         19.4795   38.6201   64.9735 H         1 UNN         0.0000 
     35 H3         19.4849   40.5947   63.5382 H         1 UNN         0.0000 
     36 H4         23.6255   39.0236   65.5565 H         1 UNN         0.0000 
     37 H5         24.9899   43.0768   65.6176 H         1 UNN         0.0000 
     38 H6         27.1647   43.2051   66.3492 H         1 UNN         0.0000 
     39 H7         27.3942   42.1901   64.9367 H         1 UNN         0.0000 
     40 H8         27.8082   41.5583   67.8259 H         1 UNN         0.0000 
     41 H9         28.5768   40.8487   66.4051 H         1 UNN         0.0000 
     42 H10        26.6447   39.5211   66.0543 H         1 UNN         0.0000 
     43 H11        25.5532   40.2184   68.6604 H         1 UNN         0.0000 
     44 H12        24.8074   39.3462   67.3444 H         1 UNN         0.0000 
     45 H13        24.9099   42.2816   67.8839 H         1 UNN         0.0000 
     46 H14        23.6978   41.3814   66.9854 H         1 UNN         0.0000 
     47 H15        25.0050   46.1852   59.8665 H         1 UNN         0.0000 
     48 H16        26.2939   46.7666   60.9135 H         1 UNN         0.0000 
     49 H17        23.1681   47.6615   59.7364 H         1 UNN         0.0000 
     50 H18        22.0594   50.1730   62.9092 H         1 UNN         0.0000 
     51 H19        25.2814   47.5207   63.3689 H         1 UNN         0.0000 
     52 H20        24.9164   50.1771   66.1063 H         1 UNN         0.0000 
     53 H21        25.5358   50.4693   64.4750 H         1 UNN         0.0000 
     54 H22        25.7262   48.8683   65.2423 H         1 UNN         0.0000 
     55 H23        20.8373   50.3958   58.7061 H         1 UNN         0.0000 
     56 H24        21.9915   49.0810   58.4957 H         1 UNN         0.0000 
     57 H25        22.5460   50.6662   59.0852 H         1 UNN         0.0000 
@<TRIPOS>BOND
     1    1    2 ar   
     2    6    1 ar   
     3   13   14 1    
     4    3    2 ar   
     5   14   15 1    
     6    4    3 ar   
     7   15   16 1    
     8    5    4 ar   
     9    4    7 ar   
    10    5    6 ar   
    11    9    5 ar   
    12   16   17 1    
    13    7    8 ar   
    14    9   13 1    
    15    8   10 1    
    16    9    8 ar   
    17   10   11 ar   
    18   10   12 ar   
    19   11   20 ar   
    20   12   21 ar   
    21   17   18 1    
    22   18   19 1    
    23   14   19 1    
    24    1   33 1    
    25    2   34 1    
    26    3   35 1    
    27    6   36 1    
    28   14   37 1    
    29   15   38 1    
    30   15   39 1    
    31   16   40 1    
    32   16   41 1    
    33   17   42 1    
    34   21   20 ar   
    35   21   22 1    
    36   22   23 1    
    37   18   43 1    
    38   18   44 1    
    39   23   24 ar   
    40   23   28 ar   
    41   24   25 ar   
    42   19   45 1    
    43   25   26 ar   
    44   25   31 1    
    45   26   27 ar   
    46   19   46 1    
    47   28   27 ar   
    48   27   29 1    
    49   22   47 1    
    50   29   30 1    
    51   22   48 1    
    52   24   49 1    
    53   26   50 1    
    54   31   32 1    
    55   28   51 1    
    56   30   52 1    
    57   30   53 1    
    58   30   54 1    
    59   32   55 1    
    60   32   56 1    
    61   32   57 1    
@<TRIPOS>SUBSTRUCTURE
     1 UNN         1 TEMP              0 ****  ****    0 ROOT 
@<TRIPOS>NORMAL
@<TRIPOS>PROPERTY_DATA
  Total_Score	| 15.4298
 Crash		| -1.5668
  Polar		| 1.8295
  Strain		| 2.9658
  Total		| 12.46400
  Ligmin		| 93.15215
  Full		| 77.85037
  Complex		| 933.80089
  Cscale		| 120.96966
  Pmove		| 0.20433
  Similarity	| -nan
  Total_Score	| 12.1164
  Crash		| -3.4571
  Polar		| 1.0539
  Similarity	| -nan
