#	Name:			2_14a_004-p0
#	Creating user name:	Mariana
#	Creation time:		Wed Jan 11 14:11:19 2017

#	Modifying user name:	Mariana
#	Modification time:	Wed Jan 11 14:11:19 2017

@<TRIPOS>MOLECULE
2_14a_004-p0
   49    53     1    15     0
SMALL
NO_CHARGES


@<TRIPOS>ATOM
      1 C          21.5089   38.6948   65.2277 C.ar      1 UNN         0.0000 
      2 C1         20.2554   39.2427   64.8861 C.ar      1 UNN         0.0000 
      3 C2         20.1844   40.4619   64.1864 C.ar      1 UNN         0.0000 
      4 C3         21.3802   41.1274   63.8687 C.ar      1 UNN         0.0000 
      5 C4         22.6411   40.6125   64.2161 C.ar      1 UNN         0.0000 
      6 C5         22.6983   39.3668   64.8765 C.ar      1 UNN         0.0000 
      7 S          21.6269   42.6028   63.0278 S.3       1 UNN         0.0000 
      8 C6         23.3478   42.5742   63.0994 C.ar      1 UNN         0.0000 
      9 C7         23.7282   41.4371   63.8393 C.ar      1 UNN         0.0000 
     10 C8         24.1768   43.5316   62.4890 C.ar      1 UNN         0.0000 
     11 N          25.4757   43.3652   62.1887 N.ar      1 UNN         0.0000 
     12 N1         23.7966   44.7561   62.0978 N.ar      1 UNN         0.0000 
     13 O          25.9144   44.4546   61.6265 O.3       1 UNN         0.0000 
     14 C9         24.8859   45.3281   61.5658 C.ar      1 UNN         0.0000 
     15 C10        24.9552   46.6882   61.0079 C.3       1 UNN         0.0000 
     16 C11        25.0350   47.7026   62.0903 C.ar      1 UNN         0.0000 
     17 C12        23.8972   48.4472   62.4829 C.ar      1 UNN         0.0000 
     18 C13        23.9857   49.4090   63.5071 C.ar      1 UNN         0.0000 
     19 C14        25.2131   49.6357   64.1570 C.ar      1 UNN         0.0000 
     20 C15        26.3527   48.9071   63.7743 C.ar      1 UNN         0.0000 
     21 C16        26.2649   47.9474   62.7490 C.ar      1 UNN         0.0000 
     22 O1         25.0428   41.1487   64.1179 O.3       1 UNN         0.0000 
     23 C17        25.6064   43.1343   65.6243 C.3       1 UNN         0.0000 
     24 H          26.6720   41.3010   65.2972 H         1 UNN         0.0000 
     25 C18        25.0508   40.8397   66.6127 C.3       1 UNN         0.0000 
     26 H1         26.1381   43.0151   68.9669 H         1 UNN         0.0000 
     27 H2         24.5778   43.5014   65.6208 H         1 UNN         0.0000 
     28 H3         26.1534   43.6419   64.8287 H         1 UNN         0.0000 
     29 H4         21.5552   37.7993   65.7184 H         1 UNN         0.0000 
     30 H5         19.3951   38.7483   65.1355 H         1 UNN         0.0000 
     31 H6         19.2816   40.8508   63.9205 H         1 UNN         0.0000 
     32 H7         23.5968   38.9417   65.1019 H         1 UNN         0.0000 
     33 H8         25.8351   46.7747   60.3649 H         1 UNN         0.0000 
     34 H9         24.0810   46.8467   60.3713 H         1 UNN         0.0000 
     35 H10        22.9935   48.2930   62.0272 H         1 UNN         0.0000 
     36 H11        23.1545   49.9376   63.7849 H         1 UNN         0.0000 
     37 H12        25.2777   50.3315   64.9040 H         1 UNN         0.0000 
     38 H13        27.2450   49.0708   64.2464 H         1 UNN         0.0000 
     39 H14        27.1050   47.4257   62.4866 H         1 UNN         0.0000 
     40 C19        25.7406   41.2731   67.9280 C.3       1 UNN         0.0000 
     41 H15        25.2001   39.7650   66.4835 H         1 UNN         0.0000 
     42 H16        23.9816   41.0410   66.7076 H         1 UNN         0.0000 
     43 H17        25.2238   40.8028   68.7653 H         1 UNN         0.0000 
     44 N2         25.6774   42.7399   68.0972 N.3       1 UNN         0.0000 
     45 H18        26.7842   40.9446   67.9409 H         1 UNN         0.0000 
     46 C20        26.2575   43.5130   66.9802 C.3       1 UNN         0.0000 
     47 H19        26.0894   44.5715   67.1826 H         1 UNN         0.0000 
     48 C21        25.6199   41.5931   65.3765 C.3       1 UNN         0.0000 
     49 H20        27.3375   43.3398   66.9405 H         1 UNN         0.0000 
@<TRIPOS>BOND
     1    1    2 ar   
     2    6    1 ar   
     3    1   29 1    
     4    3    2 ar   
     5    2   30 1    
     6    4    3 ar   
     7    3   31 1    
     8    5    4 ar   
     9    7    4 ar   
    10    5    6 ar   
    11    9    5 ar   
    12    6   32 1    
    13    8    7 ar   
    14    9    8 ar   
    15    8   10 1    
    16   22    9 1    
    17   10   11 ar   
    18   10   12 ar   
    19   11   13 ar   
    20   12   14 ar   
    21   14   13 ar   
    22   14   15 1    
    23   15   16 1    
    24   15   33 1    
    25   15   34 1    
    26   16   17 ar   
    27   16   21 ar   
    28   17   18 ar   
    29   17   35 1    
    30   18   19 ar   
    31   18   36 1    
    32   20   19 ar   
    33   19   37 1    
    34   21   20 ar   
    35   20   38 1    
    36   21   39 1    
    37   48   22 1    
    38   23   27 1    
    39   23   28 1    
    40   23   46 1    
    41   48   23 1    
    42   48   24 1    
    43   40   25 1    
    44   25   41 1    
    45   25   42 1    
    46   25   48 1    
    47   44   26 1    
    48   40   43 1    
    49   40   44 1    
    50   40   45 1    
    51   44   46 1    
    52   46   47 1    
    53   46   49 1    
@<TRIPOS>SUBSTRUCTURE
     1 UNN         1 TEMP              0 ****  ****    0 ROOT 
@<TRIPOS>NORMAL
@<TRIPOS>PROPERTY_DATA
  Total_Score	| 12.8529
 Crash		| -1.4204
  Polar		| 1.3657
  Strain		| 0.7365
  Total		| 12.11647
  Ligmin		| 78.65184
  Full		| 63.02295
  Complex		| 900.77256
  Cscale		| 108.98236
  Pmove		| 0.25527
  Similarity	| -nan
  Total_Score	| 7.9818
  Crash		| -5.6698
  Polar		| 1.2621
  Similarity	| -nan
