#	Name:			2_14b_000-p0
#	Creating user name:	Mariana
#	Creation time:		Wed Jan 11 14:11:35 2017

#	Modifying user name:	Mariana
#	Modification time:	Wed Jan 11 14:11:35 2017

@<TRIPOS>MOLECULE
2_14b_000-p0
   53    57     1    15     0
SMALL
NO_CHARGES


@<TRIPOS>ATOM
      1 C          21.4033   38.6931   65.5479 C.ar      1 UNN         0.0000 
      2 C1         20.2172   39.1957   64.9718 C.ar      1 UNN         0.0000 
      3 C2         20.2619   40.3240   64.1303 C.ar      1 UNN         0.0000 
      4 C3         21.5039   40.9337   63.8900 C.ar      1 UNN         0.0000 
      5 C4         22.6978   40.4500   64.4533 C.ar      1 UNN         0.0000 
      6 C5         22.6428   39.3154   65.2908 C.ar      1 UNN         0.0000 
      7 S          21.8915   42.3023   62.9286 S.3       1 UNN         0.0000 
      8 C6         23.5894   42.2593   63.2146 C.ar      1 UNN         0.0000 
      9 C7         23.8450   41.1951   64.0979 C.ar      1 UNN         0.0000 
     10 C8         24.5187   43.1535   62.6619 C.ar      1 UNN         0.0000 
     11 N          25.8435   42.9494   62.5634 N.ar      1 UNN         0.0000 
     12 N1         24.2297   44.3695   62.1815 N.ar      1 UNN         0.0000 
     13 O          25.1088   40.9084   64.5437 O.3       1 UNN         0.0000 
     14 C9         26.7823   40.6728   66.2558 C.3       1 UNN         0.0000 
     15 H          24.6770   40.9931   66.5907 H         1 UNN         0.0000 
     16 C10        25.5595   42.8993   66.0316 C.3       1 UNN         0.0000 
     17 C11        27.2757   41.1187   67.6532 C.3       1 UNN         0.0000 
     18 H1         27.5400   40.9445   65.5174 H         1 UNN         0.0000 
     19 H2         26.6670   39.5859   66.2427 H         1 UNN         0.0000 
     20 O1         26.3868   44.0121   62.0445 O.3       1 UNN         0.0000 
     21 C12        25.4003   44.9030   61.8060 C.ar      1 UNN         0.0000 
     22 C13        25.6003   46.2650   61.2837 C.3       1 UNN         0.0000 
     23 C14        25.4251   47.2816   62.3579 C.ar      1 UNN         0.0000 
     24 C15        26.5322   47.9961   62.8749 C.ar      1 UNN         0.0000 
     25 C16        26.3669   48.9250   63.9184 C.ar      1 UNN         0.0000 
     26 C17        25.0874   49.1683   64.4496 C.ar      1 UNN         0.0000 
     27 C18        23.9672   48.4877   63.9354 C.ar      1 UNN         0.0000 
     28 C19        24.1432   47.5400   62.9050 C.ar      1 UNN         0.0000 
     29 O2         22.7382   48.7002   64.5037 O.3       1 UNN         0.0000 
     30 C20        21.8588   49.5118   63.7085 C.3       1 UNN         0.0000 
     31 H3         21.3629   37.8732   66.1555 H         1 UNN         0.0000 
     32 H4         19.3217   38.7400   65.1666 H         1 UNN         0.0000 
     33 H5         19.4102   40.6893   63.7049 H         1 UNN         0.0000 
     34 H6         23.4935   38.9419   65.7157 H         1 UNN         0.0000 
     35 C21        26.0894   43.2914   67.4355 C.3       1 UNN         0.0000 
     36 H7         24.5859   43.3692   65.8753 H         1 UNN         0.0000 
     37 H8         26.2473   43.2863   65.2771 H         1 UNN         0.0000 
     38 H9         26.2618   44.3691   67.4746 H         1 UNN         0.0000 
     39 H10        28.0805   42.9270   67.0846 H         1 UNN         0.0000 
     40 H11        25.3482   43.0390   68.1989 H         1 UNN         0.0000 
     41 H12        28.2657   40.6990   67.8429 H         1 UNN         0.0000 
     42 H13        26.5972   40.7483   68.4256 H         1 UNN         0.0000 
     43 N2         27.3628   42.5934   67.7300 N.3       1 UNN         0.0000 
     44 H14        26.6052   46.3220   60.8569 H         1 UNN         0.0000 
     45 H15        24.8944   46.4527   60.4717 H         1 UNN         0.0000 
     46 H16        27.4739   47.8321   62.5086 H         1 UNN         0.0000 
     47 H17        27.1754   49.4207   64.2961 H         1 UNN         0.0000 
     48 H18        24.9764   49.8380   65.2165 H         1 UNN         0.0000 
     49 H19        23.3278   47.0306   62.5581 H         1 UNN         0.0000 
     50 H20        20.9241   49.6381   64.2563 H         1 UNN         0.0000 
     51 H21        22.2869   50.5006   63.5357 H         1 UNN         0.0000 
     52 H22        21.6328   49.0385   62.7494 H         1 UNN         0.0000 
     53 C22        25.4348   41.3504   65.8834 C.3       1 UNN         0.0000 
@<TRIPOS>BOND
     1    1    2 ar   
     2    6    1 ar   
     3    1   31 1    
     4    3    2 ar   
     5    2   32 1    
     6    4    3 ar   
     7    3   33 1    
     8    5    4 ar   
     9    7    4 ar   
    10    5    6 ar   
    11    9    5 ar   
    12    6   34 1    
    13    8    7 ar   
    14    9    8 ar   
    15    8   10 1    
    16   13    9 1    
    17   10   11 ar   
    18   10   12 ar   
    19   11   20 ar   
    20   12   21 ar   
    21   53   13 1    
    22   14   17 1    
    23   14   18 1    
    24   14   19 1    
    25   53   14 1    
    26   53   15 1    
    27   16   35 1    
    28   16   36 1    
    29   16   37 1    
    30   16   53 1    
    31   17   41 1    
    32   17   42 1    
    33   17   43 1    
    34   20   21 ar   
    35   21   22 1    
    36   22   23 1    
    37   22   44 1    
    38   22   45 1    
    39   23   24 ar   
    40   23   28 ar   
    41   24   25 ar   
    42   24   46 1    
    43   25   26 ar   
    44   25   47 1    
    45   26   27 ar   
    46   26   48 1    
    47   27   28 ar   
    48   27   29 1    
    49   28   49 1    
    50   29   30 1    
    51   30   50 1    
    52   30   51 1    
    53   30   52 1    
    54   35   38 1    
    55   35   40 1    
    56   35   43 1    
    57   43   39 1    
@<TRIPOS>SUBSTRUCTURE
     1 UNN         1 TEMP              0 ****  ****    0 ROOT 
@<TRIPOS>NORMAL
@<TRIPOS>PROPERTY_DATA
  Total_Score	| 14.9369
 Crash		| -1.2599
  Polar		| 2.1891
  Strain		| 0.7243
  Total		| 14.21265
  Ligmin		| 80.85327
  Full		| 61.66619
  Complex		| 903.02045
  Cscale		| 112.87756
  Pmove		| 0.25550
  Similarity	| -nan
  Total_Score	| 12.2728
  Crash		| -2.9612
  Polar		| 1.5307
  Similarity	| -nan
