#	Name:			2_18_000-p0
#	Creating user name:	Mariana
#	Creation time:		Wed Jan 11 14:12:12 2017

#	Modifying user name:	Mariana
#	Modification time:	Wed Jan 11 14:12:12 2017

@<TRIPOS>MOLECULE
2_18_000-p0
   50    54     1    15     0
SMALL
NO_CHARGES


@<TRIPOS>ATOM
      1 C          21.1626   38.5396   65.4647 C.ar      1 UNN         0.0000 
      2 C1         20.0634   39.0192   64.7245 C.ar      1 UNN         0.0000 
      3 C2         20.2087   40.1427   63.8884 C.ar      1 UNN         0.0000 
      4 C3         21.4583   40.7804   63.8329 C.ar      1 UNN         0.0000 
      5 C4         22.5645   40.3366   64.5744 C.ar      1 UNN         0.0000 
      6 C5         22.4111   39.1903   65.3868 C.ar      1 UNN         0.0000 
      7 S          21.9430   42.1618   62.9411 S.3       1 UNN         0.0000 
      8 C6         23.5708   42.1993   63.5069 C.ar      1 UNN         0.0000 
      9 C7         23.7213   41.1430   64.4284 C.ar      1 UNN         0.0000 
     10 C8         24.4953   43.1384   63.0961 C.ar      1 UNN         0.0000 
     11 N11        25.7386   43.1762   63.3749 N.ar      1 UNN         0.0000 
     12 N          24.2470   44.1451   62.3517 N.ar      1 UNN         0.0000 
     13 O          24.8833   40.9270   65.1320 O.3       1 UNN         0.0000 
     14 C9         24.7800   41.0253   66.5785 C.3       1 UNN         0.0000 
     15 C10        25.2607   42.4041   67.1203 C.3       1 UNN         0.0000 
     16 C11        26.8041   42.5542   67.1158 C.3       1 UNN         0.0000 
     17 N2         27.4583   41.3875   67.7507 N.3       1 UNN         0.0000 
     18 C12        27.1199   40.0961   67.1190 C.3       1 UNN         0.0000 
     19 C13        25.5935   39.8565   67.2038 C.3       1 UNN         0.0000 
     20 N3         26.2598   44.1491   62.8531 N.ar      1 UNN         0.0000 
     21 C14        25.3497   44.7719   62.2100 C.ar      1 UNN         0.0000 
     22 C15        25.5266   45.9964   61.4550 C.3       1 UNN         0.0000 
     23 C16        25.5356   47.1969   62.3377 C.ar      1 UNN         0.0000 
     24 C17        24.4016   48.0416   62.4324 C.ar      1 UNN         0.0000 
     25 C18        24.4188   49.1847   63.2550 C.ar      1 UNN         0.0000 
     26 C19        25.5717   49.5040   63.9941 C.ar      1 UNN         0.0000 
     27 C20        26.7060   48.6756   63.9127 C.ar      1 UNN         0.0000 
     28 C21        26.6877   47.5321   63.0902 C.ar      1 UNN         0.0000 
     29 H1         21.0530   37.7182   66.0622 H         1 UNN         0.0000 
     30 H2         19.1593   38.5483   64.7969 H         1 UNN         0.0000 
     31 H3         19.4227   40.4930   63.3421 H         1 UNN         0.0000 
     32 H4         23.1933   38.8273   65.9314 H         1 UNN         0.0000 
     33 H5         26.1893   42.5494   63.9029 H         1 UNN         0.0000 
     34 H6         23.7438   40.8971   66.9148 H         1 UNN         0.0000 
     35 H7         24.9128   42.5138   68.1520 H         1 UNN         0.0000 
     36 H8         24.8121   43.2090   66.5331 H         1 UNN         0.0000 
     37 H9         27.0843   43.4523   67.6702 H         1 UNN         0.0000 
     38 H10        27.1718   42.6638   66.0938 H         1 UNN         0.0000 
     39 H11        27.1989   41.3292   68.7370 H         1 UNN         0.0000 
     40 H12        27.6433   39.3014   67.6549 H         1 UNN         0.0000 
     41 H13        27.4498   40.0834   66.0769 H         1 UNN         0.0000 
     42 H14        25.3530   38.9184   66.6990 H         1 UNN         0.0000 
     43 H15        25.3123   39.7504   68.2552 H         1 UNN         0.0000 
     44 H16        24.7251   46.0688   60.7133 H         1 UNN         0.0000 
     45 H17        26.4634   45.9477   60.8936 H         1 UNN         0.0000 
     46 H18        23.5532   47.8291   61.9022 H         1 UNN         0.0000 
     47 H19        23.5950   49.7879   63.3097 H         1 UNN         0.0000 
     48 H20        25.5860   50.3368   64.5883 H         1 UNN         0.0000 
     49 H21        27.5449   48.9070   64.4487 H         1 UNN         0.0000 
     50 H22        27.5241   46.9446   63.0435 H         1 UNN         0.0000 
@<TRIPOS>BOND
     1    1    2 ar   
     2    6    1 ar   
     3    1   29 1    
     4    3    2 ar   
     5    2   30 1    
     6    4    3 ar   
     7    3   31 1    
     8    5    4 ar   
     9    7    4 ar   
    10    5    6 ar   
    11    9    5 ar   
    12    6   32 1    
    13    8    7 ar   
    14    8    9 ar   
    15   10    8 1    
    16    9   13 1    
    17   11   20 ar   
    18   10   12 ar   
    19   10   11 ar   
    20   11   33 ar   
    21   12   21 ar   
    22   13   14 1    
    23   14   15 1    
    24   14   19 1    
    25   14   34 1    
    26   15   16 1    
    27   15   35 1    
    28   15   36 1    
    29   16   17 1    
    30   16   37 1    
    31   16   38 1    
    32   17   18 1    
    33   17   39 1    
    34   19   18 1    
    35   18   40 1    
    36   18   41 1    
    37   19   42 1    
    38   19   43 1    
    39   21   20 ar   
    40   21   22 1    
    41   22   23 1    
    42   22   44 1    
    43   22   45 1    
    44   23   24 ar   
    45   23   28 ar   
    46   24   25 ar   
    47   24   46 1    
    48   25   26 ar   
    49   25   47 1    
    50   26   27 ar   
    51   26   48 1    
    52   28   27 ar   
    53   27   49 1    
    54   28   50 1    
@<TRIPOS>SUBSTRUCTURE
     1 UNN         1 TEMP              0 ****  ****    0 ROOT 
@<TRIPOS>NORMAL
@<TRIPOS>PROPERTY_DATA
  Total_Score	| 13.4365
 Crash		| -1.3582
  Polar		| 1.9935
  Strain		| 1.4509
  Total		| 11.98558
  Ligmin		| 79.56973
  Full		| 64.77212
  Complex		| 900.36366
  Cscale		| 109.53329
  Pmove		| 0.20462
  Similarity	| -nan
  Total_Score	| 11.0420
  Crash		| -2.3411
  Polar		| 1.1358
  Similarity	| -nan
