#	Name:			2_20b_007-p0
#	Creating user name:	Mariana
#	Creation time:		Wed Jan 11 14:13:05 2017

#	Modifying user name:	Mariana
#	Modification time:	Wed Jan 11 14:13:05 2017

@<TRIPOS>MOLECULE
2_20b_007-p0
   53    57     1    15     0
SMALL
NO_CHARGES


@<TRIPOS>ATOM
      1 C          28.5290   46.3590   61.8185 C.ar      1 UNN         0.0000 
      2 C1         29.2471   45.1976   62.1745 C.ar      1 UNN         0.0000 
      3 C2         28.5612   44.0101   62.4966 C.ar      1 UNN         0.0000 
      4 C3         27.1568   44.0248   62.4728 C.ar      1 UNN         0.0000 
      5 C4         26.4165   45.1762   62.1546 C.ar      1 UNN         0.0000 
      6 C5         27.1176   46.3481   61.7944 C.ar      1 UNN         0.0000 
      7 S          26.0439   42.7555   62.7734 S.3       1 UNN         0.0000 
      8 C6         24.6137   43.6818   62.5272 C.ar      1 UNN         0.0000 
      9 C7         25.0132   45.0032   62.2271 C.ar      1 UNN         0.0000 
     10 C8         23.3539   43.1328   62.6688 C.ar      1 UNN         0.0000 
     11 N          22.3443   43.7479   63.1444 N.ar      1 UNN         0.0000 
     12 O          23.0747   41.8673   62.4084 O.3       1 UNN         0.0000 
     13 O1         24.1405   45.9998   61.8694 O.3       1 UNN         0.0000 
     14 C9         23.2767   46.5651   62.8884 C.3       1 UNN         0.0000 
     15 C10        21.8481   46.5865   62.2690 C.3       1 UNN         0.0000 
     16 C11        21.7587   47.5516   61.0559 C.3       1 UNN         0.0000 
     17 N1         22.7427   48.6638   61.0899 N.3       1 UNN         0.0000 
     18 C12        23.0977   49.1437   62.4426 C.3       1 UNN         0.0000 
     19 C13        23.6976   48.0063   63.3192 C.3       1 UNN         0.0000 
     20 N2         21.4059   42.9737   63.2135 N.ar      1 UNN         0.0000 
     21 C14        21.8011   41.8471   62.7717 C.ar      1 UNN         0.0000 
     22 C15        20.9927   40.6449   62.7555 C.3       1 UNN         0.0000 
     23 C16        21.0214   39.9589   64.0734 C.ar      1 UNN         0.0000 
     24 C17        19.8294   39.6612   64.7732 C.ar      1 UNN         0.0000 
     25 C18        19.8777   38.9926   66.0092 C.ar      1 UNN         0.0000 
     26 C19        21.1164   38.6495   66.5803 C.ar      1 UNN         0.0000 
     27 C20        22.3167   38.9312   65.8998 C.ar      1 UNN         0.0000 
     28 C21        22.2560   39.5551   64.6362 C.ar      1 UNN         0.0000 
     29 O2         23.5063   38.5072   66.4347 O.3       1 UNN         0.0000 
     30 C22        24.5203   39.5202   66.5573 C.3       1 UNN         0.0000 
     31 H          29.0365   47.2133   61.5766 H         1 UNN         0.0000 
     32 H1         30.2686   45.2168   62.1926 H         1 UNN         0.0000 
     33 H2         29.0734   43.1598   62.7452 H         1 UNN         0.0000 
     34 H3         26.6145   47.1918   61.5127 H         1 UNN         0.0000 
     35 H4         23.2526   45.9366   63.7817 H         1 UNN         0.0000 
     36 H5         21.5565   45.5811   61.9608 H         1 UNN         0.0000 
     37 H6         21.1410   46.9093   63.0385 H         1 UNN         0.0000 
     38 H7         20.7512   47.9708   60.9910 H         1 UNN         0.0000 
     39 H8         21.9426   46.9911   60.1351 H         1 UNN         0.0000 
     40 H9         23.5952   48.3629   60.6133 H         1 UNN         0.0000 
     41 H10        22.1949   49.5424   62.9140 H         1 UNN         0.0000 
     42 H11        23.8121   49.9634   62.3548 H         1 UNN         0.0000 
     43 H12        23.3702   48.1782   64.3480 H         1 UNN         0.0000 
     44 H13        24.7856   48.0762   63.3229 H         1 UNN         0.0000 
     45 H14        19.9719   40.9108   62.4611 H         1 UNN         0.0000 
     46 H15        21.3702   39.9566   61.9979 H         1 UNN         0.0000 
     47 H16        18.9193   39.9302   64.3921 H         1 UNN         0.0000 
     48 H17        19.0113   38.7718   66.5026 H         1 UNN         0.0000 
     49 H18        21.1413   38.2014   67.4975 H         1 UNN         0.0000 
     50 H19        23.1251   39.7153   64.1203 H         1 UNN         0.0000 
     51 H20        25.3830   39.0852   67.0617 H         1 UNN         0.0000 
     52 H21        24.8454   39.8772   65.5805 H         1 UNN         0.0000 
     53 H22        24.1700   40.3688   67.1479 H         1 UNN         0.0000 
@<TRIPOS>BOND
     1    1    2 ar   
     2    1    6 ar   
     3    1   31 1    
     4    2    3 ar   
     5    2   32 1    
     6    3    4 ar   
     7    3   33 1    
     8    4    5 ar   
     9    4    7 ar   
    10    5    6 ar   
    11    5    9 ar   
    12    6   34 1    
    13    7    8 ar   
    14    8    9 ar   
    15    8   10 1    
    16    9   13 1    
    17   10   11 ar   
    18   10   12 ar   
    19   11   20 ar   
    20   12   21 ar   
    21   13   14 1    
    22   14   15 1    
    23   14   19 1    
    24   14   35 1    
    25   15   16 1    
    26   15   36 1    
    27   15   37 1    
    28   16   17 1    
    29   16   38 1    
    30   16   39 1    
    31   17   18 1    
    32   17   40 1    
    33   18   19 1    
    34   18   41 1    
    35   18   42 1    
    36   19   43 1    
    37   19   44 1    
    38   20   21 ar   
    39   21   22 1    
    40   22   23 1    
    41   22   45 1    
    42   22   46 1    
    43   23   24 ar   
    44   23   28 ar   
    45   24   25 ar   
    46   24   47 1    
    47   25   26 ar   
    48   25   48 1    
    49   26   27 ar   
    50   26   49 1    
    51   27   28 ar   
    52   27   29 1    
    53   28   50 1    
    54   29   30 1    
    55   30   51 1    
    56   30   52 1    
    57   30   53 1    
@<TRIPOS>SUBSTRUCTURE
     1 UNN         1 TEMP              0 ****  ****    0 ROOT 
@<TRIPOS>NORMAL
@<TRIPOS>PROPERTY_DATA
  Total_Score	| 12.2098
 Crash		| -2.1068
  Polar		| 1.1365
  Strain		| 4.6110
  Total		| 7.59887
  Ligmin		| 83.47223
  Full		| 74.74340
  Complex		| 926.62258
  Cscale		| 116.93094
  Pmove		| 0.21560
  Similarity	| -nan
  Total_Score	| 9.5066
  Crash		| -3.4556
  Polar		| 1.0401
  Similarity	| -nan
