#	Name:			2_20a_009-p0
#	Creating user name:	Mariana
#	Creation time:		Wed Jan 11 14:12:34 2017

#	Modifying user name:	Mariana
#	Modification time:	Wed Jan 11 14:12:34 2017

@<TRIPOS>MOLECULE
2_20a_009-p0
   49    53     1    15     0
SMALL
NO_CHARGES


@<TRIPOS>ATOM
      1 C          28.9340   46.2459   61.7283 C.ar      1 UNN         0.0000 
      2 C1         29.5661   45.1096   62.2677 C.ar      1 UNN         0.0000 
      3 C2         28.7955   44.0028   62.6707 C.ar      1 UNN         0.0000 
      4 C3         27.3949   44.0749   62.5328 C.ar      1 UNN         0.0000 
      5 C4         26.7238   45.1969   62.0067 C.ar      1 UNN         0.0000 
      6 C5         27.5295   46.2828   61.5848 C.ar      1 UNN         0.0000 
      7 S          26.2267   42.8770   62.9045 S.3       1 UNN         0.0000 
      8 C6         24.8544   43.7911   62.4165 C.ar      1 UNN         0.0000 
      9 C7         25.3038   45.0464   61.9548 C.ar      1 UNN         0.0000 
     10 C8         23.5781   43.2666   62.4849 C.ar      1 UNN         0.0000 
     11 N          22.4926   43.9283   62.3711 N.ar      1 UNN         0.0000 
     12 O          23.3502   41.9824   62.7034 O.3       1 UNN         0.0000 
     13 O1         24.3491   45.8950   61.4339 O.3       1 UNN         0.0000 
     14 C9         24.3469   47.3396   61.5064 C.3       1 UNN         0.0000 
     15 C10        24.5539   47.9402   62.9427 C.3       1 UNN         0.0000 
     16 C11        23.2427   48.3581   63.6653 C.3       1 UNN         0.0000 
     17 N1         22.1082   47.5059   63.2497 N.3       1 UNN         0.0000 
     18 C12        21.7956   47.5211   61.7981 C.3       1 UNN         0.0000 
     19 C13        23.0142   47.8354   60.8870 C.3       1 UNN         0.0000 
     20 N2         21.5574   43.1554   62.4842 N.ar      1 UNN         0.0000 
     21 C14        22.0279   41.9861   62.6868 C.ar      1 UNN         0.0000 
     22 C15        21.2392   40.7711   62.7452 C.3       1 UNN         0.0000 
     23 C16        21.1924   40.1128   64.0791 C.ar      1 UNN         0.0000 
     24 C17        19.9519   39.7742   64.6740 C.ar      1 UNN         0.0000 
     25 C18        19.8984   39.0802   65.8975 C.ar      1 UNN         0.0000 
     26 C19        21.0899   38.7273   66.5559 C.ar      1 UNN         0.0000 
     27 C20        22.3302   39.0439   65.9773 C.ar      1 UNN         0.0000 
     28 C21        22.3831   39.7107   64.7399 C.ar      1 UNN         0.0000 
     29 H          29.5019   47.0440   61.4269 H         1 UNN         0.0000 
     30 H1         30.5858   45.0870   62.3597 H         1 UNN         0.0000 
     31 H2         29.2438   43.1635   63.0432 H         1 UNN         0.0000 
     32 H3         27.1204   47.1085   61.1650 H         1 UNN         0.0000 
     33 H4         25.1212   47.7176   60.8412 H         1 UNN         0.0000 
     34 H5         25.0769   47.2176   63.5667 H         1 UNN         0.0000 
     35 H6         25.1948   48.8223   62.8733 H         1 UNN         0.0000 
     36 H7         23.0035   49.4031   63.4343 H         1 UNN         0.0000 
     37 H8         23.3733   48.2743   64.7465 H         1 UNN         0.0000 
     38 H9         22.2931   46.5423   63.5442 H         1 UNN         0.0000 
     39 H10        21.0123   48.2594   61.6133 H         1 UNN         0.0000 
     40 H11        21.3948   46.5387   61.5416 H         1 UNN         0.0000 
     41 H12        23.0798   48.9207   60.7487 H         1 UNN         0.0000 
     42 H13        22.8636   47.3918   59.8990 H         1 UNN         0.0000 
     43 H14        20.2251   40.9875   62.3910 H         1 UNN         0.0000 
     44 H15        21.6653   40.0570   62.0389 H         1 UNN         0.0000 
     45 H16        19.0712   40.0174   64.2147 H         1 UNN         0.0000 
     46 H17        18.9952   38.8325   66.3048 H         1 UNN         0.0000 
     47 H18        21.0488   38.2601   67.4621 H         1 UNN         0.0000 
     48 H19        23.1982   38.7850   66.4576 H         1 UNN         0.0000 
     49 H20        23.2985   39.9001   64.3241 H         1 UNN         0.0000 
@<TRIPOS>BOND
     1    1    2 ar   
     2    1    6 ar   
     3    1   29 1    
     4    2    3 ar   
     5    2   30 1    
     6    3    4 ar   
     7    3   31 1    
     8    4    5 ar   
     9    4    7 ar   
    10    5    6 ar   
    11    5    9 ar   
    12    6   32 1    
    13    7    8 ar   
    14    8    9 ar   
    15    8   10 1    
    16    9   13 1    
    17   10   11 ar   
    18   10   12 ar   
    19   11   20 ar   
    20   12   21 ar   
    21   13   14 1    
    22   14   15 1    
    23   14   19 1    
    24   14   33 1    
    25   15   16 1    
    26   15   34 1    
    27   15   35 1    
    28   16   17 1    
    29   16   36 1    
    30   16   37 1    
    31   17   18 1    
    32   17   38 1    
    33   18   19 1    
    34   18   39 1    
    35   18   40 1    
    36   19   41 1    
    37   19   42 1    
    38   20   21 ar   
    39   21   22 1    
    40   22   23 1    
    41   22   43 1    
    42   22   44 1    
    43   23   24 ar   
    44   23   28 ar   
    45   24   25 ar   
    46   24   45 1    
    47   25   26 ar   
    48   25   46 1    
    49   26   27 ar   
    50   26   47 1    
    51   27   28 ar   
    52   27   48 1    
    53   28   49 1    
@<TRIPOS>SUBSTRUCTURE
     1 UNN         1 TEMP              0 ****  ****    0 ROOT 
@<TRIPOS>NORMAL
@<TRIPOS>PROPERTY_DATA
  Total_Score	| 12.9523
 Crash		| -2.0760
  Polar		| 3.1663
  Strain		| 6.5539
  Total		| 6.39842
  Ligmin		| 78.25181
  Full		| 69.84506
  Complex		| 895.93490
  Cscale		| 114.32503
  Pmove		| 0.22698
  Similarity	| -nan
  Total_Score	| 6.8842
  Crash		| -2.5682
  Polar		| 1.3791
  Similarity	| -nan
