#	Name:			2_23c_002-p0
#	Creating user name:	Mariana
#	Creation time:		Wed Jan 11 14:15:13 2017

#	Modifying user name:	Mariana
#	Modification time:	Wed Jan 11 14:15:13 2017

@<TRIPOS>MOLECULE
2_23c_002-p0
   53    58     1    15     0
SMALL
NO_CHARGES


@<TRIPOS>ATOM
      1 C          21.3067   38.5985   65.4224 C.ar      1 UNN         0.0000 
      2 C1         20.1027   39.1128   64.8990 C.ar      1 UNN         0.0000 
      3 C2         20.1134   40.2911   64.1269 C.ar      1 UNN         0.0000 
      4 C3         21.3373   40.9419   63.9051 C.ar      1 UNN         0.0000 
      5 C4         22.5473   40.4478   64.4177 C.ar      1 UNN         0.0000 
      6 C5         22.5296   39.2588   65.1797 C.ar      1 UNN         0.0000 
      7 S          21.6818   42.3945   63.0576 S.3       1 UNN         0.0000 
      8 C6         23.3830   42.3849   63.3336 C.ar      1 UNN         0.0000 
      9 C7         23.6729   41.2508   64.1196 C.ar      1 UNN         0.0000 
     10 O          24.9326   40.9491   64.5711 O.3       1 UNN         0.0000 
     11 C11        25.1716   41.2018   65.9756 C.3       1 UNN         0.0000 
     12 C12        25.6897   42.6471   66.2367 C.3       1 UNN         0.0000 
     13 C13        26.0879   42.8422   67.7185 C.3       1 UNN         0.0000 
     14 N14        27.0456   41.7983   68.1558 N.3       1 UNN         0.0000 
     15 C15        26.5948   40.4033   67.9440 C.3       1 UNN         0.0000 
     16 C16        26.2178   40.1594   66.4649 C.3       1 UNN         0.0000 
     17 C8         24.2405   43.3677   62.8866 C.ar      1 UNN         0.0000 
     18 O1         23.8276   44.5393   62.4298 O.3       1 UNN         0.0000 
     19 C14        25.0039   45.1090   62.2241 C.ar      1 UNN         0.0000 
     20 N1         25.9776   44.3347   62.5054 N.ar      1 UNN         0.0000 
     21 N2         25.5135   43.2811   62.9029 N.ar      1 UNN         0.0000 
     22 C9         25.1649   46.4853   61.8066 C.3       1 UNN         0.0000 
     23 C10        25.1132   47.5318   62.8565 C.ar      1 UNN         0.0000 
     24 C17        26.0746   46.7479   60.5852 C.3       1 UNN         0.0000 
     25 C18        24.5561   46.8479   60.4308 C.3       1 UNN         0.0000 
     26 C19        26.2694   47.8628   63.6032 C.ar      1 UNN         0.0000 
     27 C20        26.2173   48.8455   64.6079 C.ar      1 UNN         0.0000 
     28 C21        25.0093   49.5197   64.8748 C.ar      1 UNN         0.0000 
     29 C22        23.8520   49.1953   64.1412 C.ar      1 UNN         0.0000 
     30 C23        23.8996   48.2011   63.1483 C.ar      1 UNN         0.0000 
     31 H1         21.2928   37.7430   65.9822 H         1 UNN         0.0000 
     32 H2         19.2199   38.6326   65.0846 H         1 UNN         0.0000 
     33 H3         19.2460   40.6685   63.7481 H         1 UNN         0.0000 
     34 H4         23.3926   38.8771   65.5692 H         1 UNN         0.0000 
     35 H5         24.2634   41.0489   66.5722 H         1 UNN         0.0000 
     36 H6         24.9091   43.3699   65.9792 H         1 UNN         0.0000 
     37 H7         26.5584   42.8439   65.6053 H         1 UNN         0.0000 
     38 H8         25.1989   42.8070   68.3513 H         1 UNN         0.0000 
     39 H9         26.5587   43.8206   67.8465 H         1 UNN         0.0000 
     40 H10        27.2947   41.9462   69.1345 H         1 UNN         0.0000 
     41 H11        25.7335   40.1928   68.5806 H         1 UNN         0.0000 
     42 H12        27.4037   39.7265   68.2327 H         1 UNN         0.0000 
     43 H13        25.8059   39.1513   66.3585 H         1 UNN         0.0000 
     44 H14        27.1158   40.2244   65.8470 H         1 UNN         0.0000 
     45 H15        26.5414   45.8808   60.1174 H         1 UNN         0.0000 
     46 H16        26.5939   47.7039   60.5462 H         1 UNN         0.0000 
     47 H17        24.1944   47.8689   60.2855 H         1 UNN         0.0000 
     48 H18        24.1105   46.0476   59.8405 H         1 UNN         0.0000 
     49 H19        27.1552   47.3838   63.4224 H         1 UNN         0.0000 
     50 H20        27.0562   49.0782   65.1417 H         1 UNN         0.0000 
     51 H21        24.9736   50.2388   65.5987 H         1 UNN         0.0000 
     52 H22        22.9768   49.6872   64.3299 H         1 UNN         0.0000 
     53 H23        23.0462   47.9697   62.6338 H         1 UNN         0.0000 
@<TRIPOS>BOND
     1    1    2 ar   
     2    6    1 ar   
     3   10   11 1    
     4    3    2 ar   
     5   11   12 1    
     6    4    3 ar   
     7   12   13 1    
     8    5    4 ar   
     9    7    4 ar   
    10    5    6 ar   
    11    9    5 ar   
    12   13   14 1    
    13    8    7 ar   
    14    9    8 ar   
    15    8   17 1    
    16    9   10 1    
    17   14   15 1    
    18   15   16 1    
    19   11   16 1    
    20    1   31 1    
    21    2   32 1    
    22    3   33 1    
    23    6   34 1    
    24   11   35 1    
    25   12   36 1    
    26   12   37 1    
    27   13   38 1    
    28   13   39 1    
    29   14   40 1    
    30   15   41 1    
    31   15   42 1    
    32   16   43 1    
    33   16   44 1    
    34   17   18 ar   
    35   17   21 ar   
    36   18   19 ar   
    37   19   20 ar   
    38   19   22 1    
    39   21   20 ar   
    40   22   23 1    
    41   22   24 1    
    42   22   25 1    
    43   23   26 ar   
    44   23   30 ar   
    45   25   24 1    
    46   24   45 1    
    47   24   46 1    
    48   25   47 1    
    49   25   48 1    
    50   26   27 ar   
    51   26   49 1    
    52   27   28 ar   
    53   27   50 1    
    54   28   29 ar   
    55   28   51 1    
    56   30   29 ar   
    57   29   52 1    
    58   30   53 1    
@<TRIPOS>SUBSTRUCTURE
     1 UNN         1 TEMP              0 ****  ****    0 ROOT 
@<TRIPOS>NORMAL
@<TRIPOS>PROPERTY_DATA
  Total_Score	| 12.6083
 Crash		| -2.0523
  Polar		| 0.9131
  Strain		| 0.7629
  Total		| 11.84544
  Ligmin		| 204.07293
  Full		| 188.36206
  Complex		| 1037.14629
  Cscale		| 126.94862
  Pmove		| 0.25693
  Similarity	| -nan
  Total_Score	| 9.0795
  Crash		| -4.7209
  Polar		| 0.5599
  Similarity	| -nan
