#	Name:			2_23a_002-p0
#	Creating user name:	Mariana
#	Creation time:		Wed Jan 11 14:13:26 2017

#	Modifying user name:	Mariana
#	Modification time:	Wed Jan 11 14:13:26 2017

@<TRIPOS>MOLECULE
2_23a_002-p0
   52    56     1    15     0
SMALL
NO_CHARGES


@<TRIPOS>ATOM
      1 C          21.6573   38.7984   65.4078 C.ar      1 UNN         0.0000 
      2 C1         20.4502   39.1843   64.7885 C.ar      1 UNN         0.0000 
      3 C2         20.4128   40.3189   63.9531 C.ar      1 UNN         0.0000 
      4 C3         21.5961   41.0492   63.7583 C.ar      1 UNN         0.0000 
      5 C4         22.8103   40.6765   64.3582 C.ar      1 UNN         0.0000 
      6 C5         22.8401   39.5370   65.1903 C.ar      1 UNN         0.0000 
      7 S          21.8813   42.4611   62.8225 S.3       1 UNN         0.0000 
      8 C6         23.5648   42.5791   63.1660 C.ar      1 UNN         0.0000 
      9 C7         23.8901   41.5357   64.0577 C.ar      1 UNN         0.0000 
     10 O          25.1336   41.3564   64.6104 O.3       1 UNN         0.0000 
     11 C8         25.5584   42.3617   65.5679 C.3       1 UNN         0.0000 
     12 C9         27.0929   42.1970   65.7430 C.3       1 UNN         0.0000 
     13 C10        27.4610   40.8604   66.4538 C.3       1 UNN         0.0000 
     14 N          26.3597   40.2800   67.2560 N.3       1 UNN         0.0000 
     15 C11        25.5235   41.2767   67.9524 C.3       1 UNN         0.0000 
     16 C12        24.8424   42.2592   66.9558 C.3       1 UNN         0.0000 
     17 C13        24.3939   43.5433   62.6369 C.ar      1 UNN         0.0000 
     18 O1         23.9700   44.7045   62.1625 O.3       1 UNN         0.0000 
     19 C14        25.1330   45.2365   61.8268 C.ar      1 UNN         0.0000 
     20 N1         26.1094   44.4498   62.0712 N.ar      1 UNN         0.0000 
     21 N2         25.6617   43.4268   62.5570 N.ar      1 UNN         0.0000 
     22 C15        25.3113   46.5959   61.3367 C.3       1 UNN         0.0000 
     23 C16        25.4752   47.5281   62.4977 C.ar      1 UNN         0.0000 
     24 C17        24.1934   47.0262   60.3465 C.3       1 UNN         0.0000 
     25 C18        26.7617   47.7946   63.0329 C.ar      1 UNN         0.0000 
     26 C19        26.9291   48.6555   64.1318 C.ar      1 UNN         0.0000 
     27 C20        25.8131   49.2931   64.7050 C.ar      1 UNN         0.0000 
     28 C21        24.5303   49.0412   64.1905 C.ar      1 UNN         0.0000 
     29 C22        24.3600   48.1540   63.1138 C.ar      1 UNN         0.0000 
     30 H          21.6767   37.9758   66.0147 H         1 UNN         0.0000 
     31 H1         19.5989   38.6393   64.9451 H         1 UNN         0.0000 
     32 H2         19.5456   40.5997   63.4961 H         1 UNN         0.0000 
     33 H3         23.7098   39.2428   65.6393 H         1 UNN         0.0000 
     34 H4         25.3851   43.3655   65.1639 H         1 UNN         0.0000 
     35 H5         27.5876   42.2491   64.7693 H         1 UNN         0.0000 
     36 H6         27.4637   43.0338   66.3426 H         1 UNN         0.0000 
     37 H7         28.3264   41.0153   67.1031 H         1 UNN         0.0000 
     38 H8         27.7353   40.1132   65.7109 H         1 UNN         0.0000 
     39 H9         25.7614   39.7175   66.6467 H         1 UNN         0.0000 
     40 H10        26.1621   41.8363   68.6400 H         1 UNN         0.0000 
     41 H11        24.7708   40.7531   68.5444 H         1 UNN         0.0000 
     42 H12        24.8250   43.2514   67.4162 H         1 UNN         0.0000 
     43 H13        23.8017   41.9653   66.8143 H         1 UNN         0.0000 
     44 H14        26.2337   46.6134   60.7434 H         1 UNN         0.0000 
     45 H15        24.3231   48.0733   60.0652 H         1 UNN         0.0000 
     46 H16        24.2431   46.4246   59.4387 H         1 UNN         0.0000 
     47 H17        23.1993   46.9052   60.7817 H         1 UNN         0.0000 
     48 H18        27.5922   47.3501   62.6311 H         1 UNN         0.0000 
     49 H19        27.8616   48.8262   64.5123 H         1 UNN         0.0000 
     50 H20        25.9353   49.9279   65.4973 H         1 UNN         0.0000 
     51 H21        23.7165   49.5021   64.6021 H         1 UNN         0.0000 
     52 H22        23.4132   47.9723   62.7763 H         1 UNN         0.0000 
@<TRIPOS>BOND
     1    1    2 ar   
     2    1    6 ar   
     3    1   30 1    
     4    2    3 ar   
     5    2   31 1    
     6    3    4 ar   
     7    3   32 1    
     8    4    5 ar   
     9    4    7 ar   
    10    5    6 ar   
    11    5    9 ar   
    12    6   33 1    
    13    7    8 ar   
    14    8    9 ar   
    15    8   17 1    
    16    9   10 1    
    17   10   11 1    
    18   11   12 1    
    19   11   16 1    
    20   11   34 1    
    21   12   13 1    
    22   12   35 1    
    23   12   36 1    
    24   13   14 1    
    25   13   37 1    
    26   13   38 1    
    27   14   15 1    
    28   14   39 1    
    29   15   16 1    
    30   15   40 1    
    31   15   41 1    
    32   16   42 1    
    33   16   43 1    
    34   17   18 ar   
    35   17   21 ar   
    36   18   19 ar   
    37   19   20 ar   
    38   19   22 1    
    39   20   21 ar   
    40   22   23 1    
    41   22   24 1    
    42   22   44 1    
    43   23   25 ar   
    44   23   29 ar   
    45   24   45 1    
    46   24   46 1    
    47   24   47 1    
    48   25   26 ar   
    49   25   48 1    
    50   26   27 ar   
    51   26   49 1    
    52   27   28 ar   
    53   27   50 1    
    54   28   29 ar   
    55   28   51 1    
    56   29   52 1    
@<TRIPOS>SUBSTRUCTURE
     1 UNN         1 TEMP              0 ****  ****    0 ROOT 
@<TRIPOS>NORMAL
@<TRIPOS>PROPERTY_DATA
  Total_Score	| 11.6569
 Crash		| -1.4956
  Polar		| 0.0219
  Strain		| 1.6694
  Total		| 9.98759
  Ligmin		| 81.61689
  Full		| 69.60460
  Complex		| 911.03825
  Cscale		| 115.54632
  Pmove		| 0.22905
  Similarity	| -nan
  Total_Score	| 7.8235
  Crash		| -4.1713
  Polar		| 0.0529
  Similarity	| -nan
