#	Name:			2_23d_000-p0
#	Creating user name:	Mariana
#	Creation time:		Wed Jan 11 14:14:00 2017

#	Modifying user name:	Mariana
#	Modification time:	Wed Jan 11 14:14:00 2017

@<TRIPOS>MOLECULE
2_23d_000-p0
   49    53     1    15     0
SMALL
NO_CHARGES


@<TRIPOS>ATOM
      1 C          21.5492   38.8298   65.3415 C.ar      1 UNN         0.0000 
      2 C1         20.3567   39.3597   64.8050 C.ar      1 UNN         0.0000 
      3 C2         20.3942   40.5174   64.0043 C.ar      1 UNN         0.0000 
      4 C3         21.6358   41.1302   63.7657 C.ar      1 UNN         0.0000 
      5 C4         22.8364   40.6231   64.2892 C.ar      1 UNN         0.0000 
      6 C5         22.7868   39.4556   65.0820 C.ar      1 UNN         0.0000 
      7 S          22.0186   42.5293   62.8504 S.3       1 UNN         0.0000 
      8 C6         23.7230   42.4717   63.1017 C.ar      1 UNN         0.0000 
      9 C7         23.9864   41.3733   63.9506 C.ar      1 UNN         0.0000 
     10 O          25.2086   40.9820   64.4384 O.3       1 UNN         0.0000 
     11 C8         26.0597   41.8407   65.2412 C.3       1 UNN         0.0000 
     12 C9         26.8213   40.9163   66.2317 C.3       1 UNN         0.0000 
     13 C10        25.9046   40.3862   67.3736 C.3       1 UNN         0.0000 
     14 N          24.6509   41.1583   67.5484 N.3       1 UNN         0.0000 
     15 C11        24.7946   42.6189   67.4046 C.3       1 UNN         0.0000 
     16 C12        25.4210   43.0268   66.0403 C.3       1 UNN         0.0000 
     17 C13        24.5917   43.3816   62.5356 C.ar      1 UNN         0.0000 
     18 O1         24.2145   44.5750   62.1038 O.3       1 UNN         0.0000 
     19 C14        25.3848   45.0456   61.7035 C.ar      1 UNN         0.0000 
     20 N1         26.3195   44.1915   61.8656 N.ar      1 UNN         0.0000 
     21 N2         25.8397   43.1901   62.3641 N.ar      1 UNN         0.0000 
     22 C15        25.5661   46.3888   61.1782 C.3       1 UNN         0.0000 
     23 C16        25.4192   47.3991   62.2742 C.ar      1 UNN         0.0000 
     24 F          26.7790   46.4988   60.5284 F         1 UNN         0.0000 
     25 C17        24.1333   47.7669   62.7473 C.ar      1 UNN         0.0000 
     26 C18        23.9805   48.7024   63.7876 C.ar      1 UNN         0.0000 
     27 C19        25.1120   49.2754   64.3925 C.ar      1 UNN         0.0000 
     28 C20        26.3969   48.9127   63.9524 C.ar      1 UNN         0.0000 
     29 C21        26.5471   47.9858   62.9040 C.ar      1 UNN         0.0000 
     30 F1         24.6375   46.6059   60.1847 F         1 UNN         0.0000 
     31 H          21.5164   37.9876   65.9205 H         1 UNN         0.0000 
     32 H1         19.4624   38.9020   64.9973 H         1 UNN         0.0000 
     33 H2         19.5377   40.8989   63.6033 H         1 UNN         0.0000 
     34 H3         23.6423   39.0578   65.4735 H         1 UNN         0.0000 
     35 H4         26.8031   42.2619   64.5624 H         1 UNN         0.0000 
     36 H5         27.2620   40.0726   65.6957 H         1 UNN         0.0000 
     37 H6         27.6456   41.4845   66.6736 H         1 UNN         0.0000 
     38 H7         26.4572   40.3945   68.3158 H         1 UNN         0.0000 
     39 H8         25.6249   39.3508   67.1670 H         1 UNN         0.0000 
     40 H9         23.9635   40.8380   66.8666 H         1 UNN         0.0000 
     41 H10        25.4101   42.9942   68.2269 H         1 UNN         0.0000 
     42 H11        23.8050   43.0635   67.4989 H         1 UNN         0.0000 
     43 H12        26.2041   43.7649   66.2367 H         1 UNN         0.0000 
     44 H13        24.6721   43.5352   65.4336 H         1 UNN         0.0000 
     45 H14        23.2932   47.3553   62.3335 H         1 UNN         0.0000 
     46 H15        23.0444   48.9586   64.1085 H         1 UNN         0.0000 
     47 H16        25.0022   49.9492   65.1550 H         1 UNN         0.0000 
     48 H17        27.2226   49.3201   64.3970 H         1 UNN         0.0000 
     49 H18        27.4953   47.7364   62.6133 H         1 UNN         0.0000 
@<TRIPOS>BOND
     1    1    2 ar   
     2    1    6 ar   
     3    1   31 1    
     4    2    3 ar   
     5    2   32 1    
     6    3    4 ar   
     7    3   33 1    
     8    4    5 ar   
     9    4    7 ar   
    10    5    6 ar   
    11    5    9 ar   
    12    6   34 1    
    13    7    8 ar   
    14    8    9 ar   
    15    8   17 1    
    16    9   10 1    
    17   10   11 1    
    18   11   12 1    
    19   11   16 1    
    20   11   35 1    
    21   12   13 1    
    22   12   36 1    
    23   12   37 1    
    24   13   14 1    
    25   13   38 1    
    26   13   39 1    
    27   14   15 1    
    28   14   40 1    
    29   15   16 1    
    30   15   41 1    
    31   15   42 1    
    32   16   43 1    
    33   16   44 1    
    34   17   18 ar   
    35   17   21 ar   
    36   18   19 ar   
    37   19   20 ar   
    38   19   22 1    
    39   20   21 ar   
    40   22   23 1    
    41   22   24 1    
    42   22   30 1    
    43   23   25 ar   
    44   23   29 ar   
    45   25   26 ar   
    46   25   45 1    
    47   26   27 ar   
    48   26   46 1    
    49   27   28 ar   
    50   27   47 1    
    51   28   29 ar   
    52   28   48 1    
    53   29   49 1    
@<TRIPOS>SUBSTRUCTURE
     1 UNN         1 TEMP              0 ****  ****    0 ROOT 
@<TRIPOS>NORMAL
@<TRIPOS>PROPERTY_DATA
  Total_Score	| 12.6847
 Crash		| -1.5378
  Polar		| 0.8990
  Strain		| 4.6698
  Total		| 8.01491
  Ligmin		| 81.20088
  Full		| 70.46235
  Complex		| 906.63683
  Cscale		| 112.18486
  Pmove		| 0.21299
  Similarity	| -nan
  Total_Score	| 9.9140
  Crash		| -3.0756
  Polar		| 0.7470
  Similarity	| -nan
