#	Name:			2_23g_000-p0
#	Creating user name:	Mariana
#	Creation time:		Wed Jan 11 14:15:44 2017

#	Modifying user name:	Mariana
#	Modification time:	Wed Jan 11 14:15:44 2017

@<TRIPOS>MOLECULE
2_23g_000-p0
   50    54     1    15     0
SMALL
NO_CHARGES


@<TRIPOS>ATOM
      1 C          21.3154   38.6994   65.4776 C.ar      1 UNN         0.0000 
      2 C1         20.0943   39.1903   64.9677 C.ar      1 UNN         0.0000 
      3 C2         20.0797   40.3463   64.1632 C.ar      1 UNN         0.0000 
      4 C3         21.2952   40.9963   63.8914 C.ar      1 UNN         0.0000 
      5 C4         22.5189   40.5275   64.3944 C.ar      1 UNN         0.0000 
      6 C5         22.5273   39.3632   65.1934 C.ar      1 UNN         0.0000 
      7 S          21.6122   42.4144   62.9749 S.3       1 UNN         0.0000 
      8 C6         23.3190   42.4191   63.2091 C.ar      1 UNN         0.0000 
      9 C7         23.6324   41.3233   64.0356 C.ar      1 UNN         0.0000 
     10 O          24.9088   41.0382   64.4496 O.3       1 UNN         0.0000 
     11 C8         25.2342   41.3922   65.8157 C.3       1 UNN         0.0000 
     12 C9         25.6013   42.8992   65.9723 C.3       1 UNN         0.0000 
     13 C10        26.1364   43.2021   67.3952 C.3       1 UNN         0.0000 
     14 N          27.2713   42.3097   67.7300 N.3       1 UNN         0.0000 
     15 C11        26.9517   40.8667   67.6507 C.3       1 UNN         0.0000 
     16 C12        26.4305   40.4957   66.2414 C.3       1 UNN         0.0000 
     17 C13        24.1690   43.3567   62.6654 C.ar      1 UNN         0.0000 
     18 O1         23.7549   44.4934   62.1261 O.3       1 UNN         0.0000 
     19 C14        24.9271   45.0189   61.8046 C.ar      1 UNN         0.0000 
     20 N1         25.9006   44.2555   62.1245 N.ar      1 UNN         0.0000 
     21 N2         25.4421   43.2514   62.6393 N.ar      1 UNN         0.0000 
     22 C15        25.1092   46.3349   61.2319 C.3       1 UNN         0.0000 
     23 C16        25.1838   47.3529   62.3205 C.ar      1 UNN         0.0000 
     24 C17        26.4397   47.8190   62.7859 C.ar      1 UNN         0.0000 
     25 C18        26.5146   48.7435   63.8469 C.ar      1 UNN         0.0000 
     26 C19        25.3399   49.2340   64.4450 C.ar      1 UNN         0.0000 
     27 C20        24.0861   48.7893   63.9868 C.ar      1 UNN         0.0000 
     28 C21        24.0071   47.8450   62.9435 C.ar      1 UNN         0.0000 
     29 O2         24.0567   46.6168   60.3102 O.3       1 UNN         0.0000 
     30 H          21.3193   37.8591   66.0623 H         1 UNN         0.0000 
     31 H1         19.2186   38.7116   65.1895 H         1 UNN         0.0000 
     32 H2         19.2024   40.7054   63.7892 H         1 UNN         0.0000 
     33 H3         23.4021   38.9972   65.5743 H         1 UNN         0.0000 
     34 H4         24.4003   41.1682   66.4924 H         1 UNN         0.0000 
     35 H5         26.3714   43.1664   65.2430 H         1 UNN         0.0000 
     36 H6         24.7194   43.5187   65.7794 H         1 UNN         0.0000 
     37 H7         25.3396   43.0740   68.1321 H         1 UNN         0.0000 
     38 H8         26.4792   44.2384   67.4453 H         1 UNN         0.0000 
     39 H9         28.0494   42.5160   67.1009 H         1 UNN         0.0000 
     40 H10        26.2023   40.6100   68.4035 H         1 UNN         0.0000 
     41 H11        27.8596   40.2966   67.8666 H         1 UNN         0.0000 
     42 H12        26.1207   39.4460   66.2363 H         1 UNN         0.0000 
     43 H13        27.2458   40.6143   65.5223 H         1 UNN         0.0000 
     44 H14        26.0359   46.3440   60.6476 H         1 UNN         0.0000 
     45 H15        27.3080   47.4806   62.3667 H         1 UNN         0.0000 
     46 H16        27.4246   49.0552   64.1866 H         1 UNN         0.0000 
     47 H17        25.3976   49.9058   65.2169 H         1 UNN         0.0000 
     48 H18        23.2306   49.1394   64.4205 H         1 UNN         0.0000 
     49 H19        23.0877   47.5191   62.6422 H         1 UNN         0.0000 
     50 H20        24.2634   47.5035   59.9448 H         1 UNN         0.0000 
@<TRIPOS>BOND
     1    1    2 ar   
     2    1    6 ar   
     3    1   30 1    
     4    2    3 ar   
     5    2   31 1    
     6    3    4 ar   
     7    3   32 1    
     8    4    5 ar   
     9    4    7 ar   
    10    5    6 ar   
    11    5    9 ar   
    12    6   33 1    
    13    7    8 ar   
    14    8    9 ar   
    15    8   17 1    
    16    9   10 1    
    17   10   11 1    
    18   11   12 1    
    19   11   16 1    
    20   11   34 1    
    21   12   13 1    
    22   12   35 1    
    23   12   36 1    
    24   13   14 1    
    25   13   37 1    
    26   13   38 1    
    27   14   15 1    
    28   14   39 1    
    29   15   16 1    
    30   15   40 1    
    31   15   41 1    
    32   16   42 1    
    33   16   43 1    
    34   17   18 ar   
    35   17   21 ar   
    36   18   19 ar   
    37   19   20 ar   
    38   19   22 1    
    39   20   21 ar   
    40   22   23 1    
    41   22   29 1    
    42   22   44 1    
    43   23   24 ar   
    44   23   28 ar   
    45   24   25 ar   
    46   24   45 1    
    47   25   26 ar   
    48   25   46 1    
    49   26   27 ar   
    50   26   47 1    
    51   27   28 ar   
    52   27   48 1    
    53   28   49 1    
    54   29   50 1    
@<TRIPOS>SUBSTRUCTURE
     1 UNN         1 TEMP              0 ****  ****    0 ROOT 
@<TRIPOS>NORMAL
@<TRIPOS>PROPERTY_DATA
  Total_Score	| 12.9919
 Crash		| -1.1418
  Polar		| 1.2492
  Strain		| 1.2280
  Total		| 11.76387
  Ligmin		| 71.10482
  Full		| 55.22360
  Complex		| 891.11598
  Cscale		| 107.10529
  Pmove		| 0.26749
  Similarity	| -nan
  Total_Score	| 9.9873
  Crash		| -2.6487
  Polar		| 0.5313
  Similarity	| -nan
