#	Name:			2_23e_000-p0
#	Creating user name:	Mariana
#	Creation time:		Wed Jan 11 14:14:26 2017

#	Modifying user name:	Mariana
#	Modification time:	Wed Jan 11 14:14:26 2017

@<TRIPOS>MOLECULE
2_23e_000-p0
   59    64     1    15     0
SMALL
NO_CHARGES


@<TRIPOS>ATOM
      1 C          27.3835   40.2583   67.3575 C.ar      1 UNN         0.0000 
      2 C1         26.4205   39.2335   67.2500 C.ar      1 UNN         0.0000 
      3 C2         25.3726   39.3366   66.3152 C.ar      1 UNN         0.0000 
      4 C3         25.3242   40.4696   65.4869 C.ar      1 UNN         0.0000 
      5 C4         26.2876   41.4897   65.5558 C.ar      1 UNN         0.0000 
      6 C5         27.3160   41.3894   66.5190 C.ar      1 UNN         0.0000 
      7 S          24.1684   40.9183   64.2979 S.3       1 UNN         0.0000 
      8 C6         24.9109   42.4098   63.8613 C.ar      1 UNN         0.0000 
      9 C7         26.0970   42.5254   64.6125 C.ar      1 UNN         0.0000 
     10 O          27.0082   43.5360   64.4216 O.3       1 UNN         0.0000 
     11 C11        27.9720   43.3058   63.3556 C.3       1 UNN         0.0000 
     12 C12        29.1255   42.3390   63.7898 C.3       1 UNN         0.0000 
     13 C13        30.3251   43.1105   64.3781 C.3       1 UNN         0.0000 
     14 N14        30.9083   43.9628   63.3202 N.3       1 UNN         0.0000 
     15 C15        29.9830   44.6737   62.3979 C.3       1 UNN         0.0000 
     16 C16        28.5091   44.6981   62.8865 C.3       1 UNN         0.0000 
     17 C8         24.3304   43.3571   63.0438 C.ar      1 UNN         0.0000 
     18 O1         24.5981   44.6502   63.1326 O.3       1 UNN         0.0000 
     19 C14        23.6548   45.1336   62.3395 C.ar      1 UNN         0.0000 
     20 N1         22.9587   44.1966   61.8210 N.ar      1 UNN         0.0000 
     21 N2         23.3646   43.1280   62.2436 N.ar      1 UNN         0.0000 
     22 C9         23.2874   46.5452   62.2372 C.3       1 UNN         0.0000 
     23 C10        24.1624   47.4994   63.0112 C.ar      1 UNN         0.0000 
     24 C17        23.5904   48.4285   63.9204 C.ar      1 UNN         0.0000 
     25 C18        24.3951   49.3061   64.6735 C.ar      1 UNN         0.0000 
     26 C19        25.7918   49.2774   64.5304 C.ar      1 UNN         0.0000 
     27 C20        26.3821   48.3819   63.6250 C.ar      1 UNN         0.0000 
     28 C21        25.5738   47.5076   62.8766 C.ar      1 UNN         0.0000 
     29 C22        23.0583   46.9873   60.8170 C.ar      1 UNN         0.0000 
     30 C23        21.7393   47.0411   60.2934 C.ar      1 UNN         0.0000 
     31 C24        21.4917   47.4417   58.9679 C.ar      1 UNN         0.0000 
     32 C25        22.5604   47.8176   58.1390 C.ar      1 UNN         0.0000 
     33 C26        23.8747   47.7791   58.6333 C.ar      1 UNN         0.0000 
     34 C27        24.1206   47.3419   59.9473 C.ar      1 UNN         0.0000 
     35 H1         28.1383   40.1775   68.0430 H         1 UNN         0.0000 
     36 H2         26.4820   38.4165   67.8576 H         1 UNN         0.0000 
     37 H3         24.6607   38.6060   66.2411 H         1 UNN         0.0000 
     38 H4         28.0166   42.1272   66.6099 H         1 UNN         0.0000 
     39 H5         27.4739   42.8528   62.4881 H         1 UNN         0.0000 
     40 H6         29.4755   41.7834   62.9146 H         1 UNN         0.0000 
     41 H7         28.7841   41.6087   64.5135 H         1 UNN         0.0000 
     42 H8         31.0835   42.4134   64.7380 H         1 UNN         0.0000 
     43 H9         30.0021   43.7224   65.2247 H         1 UNN         0.0000 
     44 H10        31.6114   44.5996   63.7002 H         1 UNN         0.0000 
     45 H11        30.0209   44.1712   61.4281 H         1 UNN         0.0000 
     46 H12        30.3419   45.6947   62.2542 H         1 UNN         0.0000 
     47 H13        27.8759   45.0756   62.0807 H         1 UNN         0.0000 
     48 H14        28.4490   45.4085   63.7114 H         1 UNN         0.0000 
     49 H15        22.3146   46.5578   62.7422 H         1 UNN         0.0000 
     50 H16        22.5756   48.4719   64.0473 H         1 UNN         0.0000 
     51 H17        23.9658   49.9640   65.3276 H         1 UNN         0.0000 
     52 H18        26.3769   49.9096   65.0811 H         1 UNN         0.0000 
     53 H19        27.3997   48.3598   63.5169 H         1 UNN         0.0000 
     54 H20        26.0318   46.8541   62.2437 H         1 UNN         0.0000 
     55 H21        20.9383   46.7752   60.8710 H         1 UNN         0.0000 
     56 H22        20.5353   47.4609   58.6060 H         1 UNN         0.0000 
     57 H23        22.3798   48.1186   57.1795 H         1 UNN         0.0000 
     58 H24        24.6536   48.0582   58.0332 H         1 UNN         0.0000 
     59 H25        25.0902   47.2945   60.2569 H         1 UNN         0.0000 
@<TRIPOS>BOND
     1    1    2 ar   
     2    6    1 ar   
     3   10   11 1    
     4    3    2 ar   
     5   11   12 1    
     6    4    3 ar   
     7   12   13 1    
     8    5    4 ar   
     9    7    4 ar   
    10    5    6 ar   
    11    9    5 ar   
    12   13   14 1    
    13    8    7 ar   
    14    9    8 ar   
    15    8   17 1    
    16    9   10 1    
    17   14   15 1    
    18   15   16 1    
    19   11   16 1    
    20    1   35 1    
    21    2   36 1    
    22    3   37 1    
    23    6   38 1    
    24   11   39 1    
    25   12   40 1    
    26   12   41 1    
    27   13   42 1    
    28   13   43 1    
    29   14   44 1    
    30   15   45 1    
    31   15   46 1    
    32   16   47 1    
    33   16   48 1    
    34   17   18 ar   
    35   17   21 ar   
    36   18   19 ar   
    37   19   20 ar   
    38   19   22 1    
    39   21   20 ar   
    40   22   23 1    
    41   22   29 1    
    42   22   49 1    
    43   23   24 ar   
    44   23   28 ar   
    45   24   25 ar   
    46   24   50 1    
    47   25   26 ar   
    48   25   51 1    
    49   26   27 ar   
    50   26   52 1    
    51   28   27 ar   
    52   27   53 1    
    53   28   54 1    
    54   29   30 ar   
    55   29   34 ar   
    56   30   31 ar   
    57   30   55 1    
    58   31   32 ar   
    59   31   56 1    
    60   32   33 ar   
    61   32   57 1    
    62   34   33 ar   
    63   33   58 1    
    64   34   59 1    
@<TRIPOS>SUBSTRUCTURE
     1 UNN         1 TEMP              0 ****  ****    0 ROOT 
@<TRIPOS>NORMAL
@<TRIPOS>PROPERTY_DATA
  Total_Score	| 11.7223
 Crash		| -2.4472
  Polar		| 0.9942
  Strain		| 5.0634
  Total		| 6.65886
  Ligmin		| 96.99921
  Full		| 89.03772
  Complex		| 925.83973
  Cscale		| 136.56136
  Pmove		| 0.24192
  Similarity	| -nan
  Total_Score	| 9.8518
  Crash		| -3.3430
  Polar		| 0.2725
  Similarity	| -nan
