#	Name:			2_23f_004-p0
#	Creating user name:	Mariana
#	Creation time:		Wed Jan 11 14:14:48 2017

#	Modifying user name:	Mariana
#	Modification time:	Wed Jan 11 14:14:48 2017

@<TRIPOS>MOLECULE
2_23f_004-p0
   53    57     1    15     0
SMALL
NO_CHARGES


@<TRIPOS>ATOM
      1 C          21.5797   38.7096   65.2270 C.ar      1 UNN         0.0000 
      2 C1         20.3241   39.2238   64.8455 C.ar      1 UNN         0.0000 
      3 C2         20.2440   40.4327   64.1276 C.ar      1 UNN         0.0000 
      4 C3         21.4329   41.1202   63.8300 C.ar      1 UNN         0.0000 
      5 C4         22.6953   40.6426   64.2218 C.ar      1 UNN         0.0000 
      6 C5         22.7618   39.4077   64.9022 C.ar      1 UNN         0.0000 
      7 S          21.6724   42.5896   62.9784 S.3       1 UNN         0.0000 
      8 C6         23.3910   42.6049   63.0984 C.ar      1 UNN         0.0000 
      9 C7         23.7748   41.4898   63.8718 C.ar      1 UNN         0.0000 
     10 O          25.0849   41.2351   64.2075 O.3       1 UNN         0.0000 
     11 C8         25.5925   41.6559   65.5060 C.3       1 UNN         0.0000 
     12 C9         24.9621   40.8747   66.6978 C.3       1 UNN         0.0000 
     13 C10        25.5354   41.3110   68.0665 C.3       1 UNN         0.0000 
     14 N          25.4329   42.7734   68.2252 N.3       1 UNN         0.0000 
     15 C11        26.1009   43.5625   67.1719 C.3       1 UNN         0.0000 
     16 C12        25.5544   43.1941   65.7702 C.3       1 UNN         0.0000 
     17 C13        24.1851   43.5649   62.5064 C.ar      1 UNN         0.0000 
     18 O1         23.7192   44.7147   62.0469 O.3       1 UNN         0.0000 
     19 C14        24.8482   45.2385   61.5975 C.ar      1 UNN         0.0000 
     20 N1         25.8433   44.4584   61.7694 N.ar      1 UNN         0.0000 
     21 N2         25.4410   43.4469   62.3151 N.ar      1 UNN         0.0000 
     22 C15        24.9485   46.5616   61.0120 C.3       1 UNN         0.0000 
     23 C16        24.9922   47.5723   62.1105 C.ar      1 UNN         0.0000 
     24 C17        26.2291   47.9662   62.6814 C.ar      1 UNN         0.0000 
     25 C18        26.2758   48.9033   63.7318 C.ar      1 UNN         0.0000 
     26 C19        25.0872   49.4825   64.2130 C.ar      1 UNN         0.0000 
     27 C20        23.8515   49.1075   63.6539 C.ar      1 UNN         0.0000 
     28 C21        23.8025   48.1463   62.6273 C.ar      1 UNN         0.0000 
     29 O2         23.8437   46.7255   60.0919 O.3       1 UNN         0.0000 
     30 C22        23.8884   47.8710   59.2245 C.3       1 UNN         0.0000 
     31 H          21.6341   37.8222   65.7311 H         1 UNN         0.0000 
     32 H1         19.4695   38.7146   65.0848 H         1 UNN         0.0000 
     33 H2         19.3389   40.7978   63.8310 H         1 UNN         0.0000 
     34 H3         23.6638   39.0097   65.1627 H         1 UNN         0.0000 
     35 H4         26.6495   41.3740   65.4817 H         1 UNN         0.0000 
     36 H5         23.8824   41.0450   66.7149 H         1 UNN         0.0000 
     37 H6         25.1484   39.8052   66.5720 H         1 UNN         0.0000 
     38 H7         26.5805   40.9987   68.1610 H         1 UNN         0.0000 
     39 H8         24.9686   40.8331   68.8662 H         1 UNN         0.0000 
     40 H9         25.7913   43.0499   69.1407 H         1 UNN         0.0000 
     41 H10        27.1813   43.3905   67.2149 H         1 UNN         0.0000 
     42 H11        25.9190   44.6212   67.3697 H         1 UNN         0.0000 
     43 H12        26.1543   43.7113   65.0195 H         1 UNN         0.0000 
     44 H13        24.5292   43.5605   65.6947 H         1 UNN         0.0000 
     45 H14        25.8785   46.6053   60.4303 H         1 UNN         0.0000 
     46 H15        27.1076   47.5599   62.3467 H         1 UNN         0.0000 
     47 H16        27.1724   49.1655   64.1453 H         1 UNN         0.0000 
     48 H17        25.1212   50.1660   64.9741 H         1 UNN         0.0000 
     49 H18        22.9860   49.5258   64.0010 H         1 UNN         0.0000 
     50 H19        22.8919   47.8738   62.2488 H         1 UNN         0.0000 
     51 H20        24.7836   47.8602   58.5999 H         1 UNN         0.0000 
     52 H21        23.0141   47.8449   58.5717 H         1 UNN         0.0000 
     53 H22        23.8594   48.8002   59.8004 H         1 UNN         0.0000 
@<TRIPOS>BOND
     1    1    2 ar   
     2    1    6 ar   
     3    1   31 1    
     4    2    3 ar   
     5    2   32 1    
     6    3    4 ar   
     7    3   33 1    
     8    4    5 ar   
     9    4    7 ar   
    10    5    6 ar   
    11    5    9 ar   
    12    6   34 1    
    13    7    8 ar   
    14    8    9 ar   
    15    8   17 1    
    16    9   10 1    
    17   10   11 1    
    18   11   12 1    
    19   11   16 1    
    20   11   35 1    
    21   12   13 1    
    22   12   36 1    
    23   12   37 1    
    24   13   14 1    
    25   13   38 1    
    26   13   39 1    
    27   14   15 1    
    28   14   40 1    
    29   15   16 1    
    30   15   41 1    
    31   15   42 1    
    32   16   43 1    
    33   16   44 1    
    34   17   18 ar   
    35   17   21 ar   
    36   18   19 ar   
    37   19   20 ar   
    38   19   22 1    
    39   20   21 ar   
    40   22   23 1    
    41   22   29 1    
    42   22   45 1    
    43   23   24 ar   
    44   23   28 ar   
    45   24   25 ar   
    46   24   46 1    
    47   25   26 ar   
    48   25   47 1    
    49   26   27 ar   
    50   26   48 1    
    51   27   28 ar   
    52   27   49 1    
    53   28   50 1    
    54   29   30 1    
    55   30   51 1    
    56   30   52 1    
    57   30   53 1    
@<TRIPOS>SUBSTRUCTURE
     1 UNN         1 TEMP              0 ****  ****    0 ROOT 
@<TRIPOS>NORMAL
@<TRIPOS>PROPERTY_DATA
  Total_Score	| 14.6184
 Crash		| -1.1019
  Polar		| 1.3289
  Strain		| 0.8071
  Total		| 13.81126
  Ligmin		| 79.17980
  Full		| 61.31424
  Complex		| 908.14672
  Cscale		| 116.54183
  Pmove		| 0.26092
  Similarity	| -nan
  Total_Score	| 8.0396
  Crash		| -7.0275
  Polar		| 1.3425
  Similarity	| -nan
