#	Name:			2_23b_003-p0
#	Creating user name:	Mariana
#	Creation time:		Wed Jan 11 14:13:43 2017

#	Modifying user name:	Mariana
#	Modification time:	Wed Jan 11 14:13:43 2017

@<TRIPOS>MOLECULE
2_23b_003-p0
   55    59     1    15     0
SMALL
NO_CHARGES


@<TRIPOS>ATOM
      1 C          21.0043   39.0026   65.1561 C.ar      1 UNN         0.0000 
      2 C1         20.1096   39.6357   64.2686 C.ar      1 UNN         0.0000 
      3 C2         20.5504   40.6915   63.4471 C.ar      1 UNN         0.0000 
      4 C3         21.8806   41.1227   63.5667 C.ar      1 UNN         0.0000 
      5 C4         22.7847   40.5244   64.4593 C.ar      1 UNN         0.0000 
      6 C5         22.3428   39.4366   65.2449 C.ar      1 UNN         0.0000 
      7 S          22.7047   42.3839   62.7454 S.3       1 UNN         0.0000 
      8 C6         24.2232   42.1655   63.5280 C.ar      1 UNN         0.0000 
      9 C7         24.0671   41.1230   64.4636 C.ar      1 UNN         0.0000 
     10 O          25.0898   40.7069   65.2771 O.3       1 UNN         0.0000 
     11 C8         24.9258   40.9492   66.6969 C.3       1 UNN         0.0000 
     12 C9         25.3496   42.3832   67.1480 C.3       1 UNN         0.0000 
     13 C10        26.8608   42.5345   67.4913 C.3       1 UNN         0.0000 
     14 N          27.6935   41.4630   66.9117 N.3       1 UNN         0.0000 
     15 C11        27.2947   40.0712   67.2204 C.3       1 UNN         0.0000 
     16 C12        25.7666   39.8709   67.4274 C.3       1 UNN         0.0000 
     17 C13        25.3451   42.9224   63.2590 C.ar      1 UNN         0.0000 
     18 O1         25.3641   43.9393   62.4123 O.3       1 UNN         0.0000 
     19 C14        26.6152   44.3461   62.5648 C.ar      1 UNN         0.0000 
     20 N1         27.2436   43.5985   63.3872 N.ar      1 UNN         0.0000 
     21 N2         26.4821   42.7452   63.8043 N.ar      1 UNN         0.0000 
     22 C15        27.2253   45.5071   61.8862 C.3       1 UNN         0.0000 
     23 C16        26.2142   46.2358   61.0086 C.ar      1 UNN         0.0000 
     24 C17        27.7449   46.5383   62.9459 C.3       1 UNN         0.0000 
     25 C18        24.8941   46.4729   61.4895 C.ar      1 UNN         0.0000 
     26 C19        23.9305   47.1498   60.7202 C.ar      1 UNN         0.0000 
     27 C20        24.2623   47.6248   59.4428 C.ar      1 UNN         0.0000 
     28 C21        25.5595   47.4292   58.9453 C.ar      1 UNN         0.0000 
     29 C22        26.5181   46.7495   59.7187 C.ar      1 UNN         0.0000 
     30 C23        28.4839   44.9587   61.1218 C.3       1 UNN         0.0000 
     31 H          20.6792   38.2298   65.7424 H         1 UNN         0.0000 
     32 H1         19.1385   39.3257   64.2222 H         1 UNN         0.0000 
     33 H2         19.9169   41.1383   62.7832 H         1 UNN         0.0000 
     34 H3         22.9780   38.9655   65.8923 H         1 UNN         0.0000 
     35 H4         23.8824   40.7988   66.9951 H         1 UNN         0.0000 
     36 H5         25.0736   43.1031   66.3754 H         1 UNN         0.0000 
     37 H6         24.7757   42.6509   68.0398 H         1 UNN         0.0000 
     38 H7         26.9963   42.5173   68.5762 H         1 UNN         0.0000 
     39 H8         27.2306   43.4956   67.1271 H         1 UNN         0.0000 
     40 H9         27.7124   41.5794   65.8934 H         1 UNN         0.0000 
     41 H10        27.8288   39.7439   68.1154 H         1 UNN         0.0000 
     42 H11        27.6301   39.4485   66.3893 H         1 UNN         0.0000 
     43 H12        25.5419   39.9215   68.4947 H         1 UNN         0.0000 
     44 H13        25.4759   38.8766   67.0778 H         1 UNN         0.0000 
     45 H14        28.1932   47.4050   62.4518 H         1 UNN         0.0000 
     46 H15        26.9368   46.8974   63.5846 H         1 UNN         0.0000 
     47 H16        28.5039   46.0934   63.5939 H         1 UNN         0.0000 
     48 H17        24.6160   46.1439   62.4174 H         1 UNN         0.0000 
     49 H18        22.9886   47.2973   61.0910 H         1 UNN         0.0000 
     50 H19        23.5674   48.1231   58.8818 H         1 UNN         0.0000 
     51 H20        25.8109   47.7911   58.0229 H         1 UNN         0.0000 
     52 H21        27.4493   46.6519   59.3160 H         1 UNN         0.0000 
     53 H22        29.0448   45.7707   60.6546 H         1 UNN         0.0000 
     54 H23        28.1866   44.2497   60.3458 H         1 UNN         0.0000 
     55 H24        29.1733   44.4436   61.7965 H         1 UNN         0.0000 
@<TRIPOS>BOND
     1    1    2 ar   
     2    1    6 ar   
     3    1   31 1    
     4    2    3 ar   
     5    2   32 1    
     6    3    4 ar   
     7    3   33 1    
     8    4    5 ar   
     9    4    7 ar   
    10    5    6 ar   
    11    5    9 ar   
    12    6   34 1    
    13    7    8 ar   
    14    8    9 ar   
    15    8   17 1    
    16    9   10 1    
    17   10   11 1    
    18   11   12 1    
    19   11   16 1    
    20   11   35 1    
    21   12   13 1    
    22   12   36 1    
    23   12   37 1    
    24   13   14 1    
    25   13   38 1    
    26   13   39 1    
    27   14   15 1    
    28   14   40 1    
    29   15   16 1    
    30   15   41 1    
    31   15   42 1    
    32   16   43 1    
    33   16   44 1    
    34   17   18 ar   
    35   17   21 ar   
    36   18   19 ar   
    37   19   20 ar   
    38   19   22 1    
    39   20   21 ar   
    40   22   23 1    
    41   22   24 1    
    42   22   30 1    
    43   23   25 ar   
    44   23   29 ar   
    45   24   45 1    
    46   24   46 1    
    47   24   47 1    
    48   25   26 ar   
    49   25   48 1    
    50   26   27 ar   
    51   26   49 1    
    52   27   28 ar   
    53   27   50 1    
    54   28   29 ar   
    55   28   51 1    
    56   29   52 1    
    57   30   53 1    
    58   30   54 1    
    59   30   55 1    
@<TRIPOS>SUBSTRUCTURE
     1 UNN         1 TEMP              0 ****  ****    0 ROOT 
@<TRIPOS>NORMAL
@<TRIPOS>PROPERTY_DATA
  Total_Score	| 9.7405
 Crash		| -1.7817
  Polar		| 0.8076
  Strain		| 0.7628
  Total		| 8.97761
  Ligmin		| 91.45316
  Full		| 79.90822
  Complex		| 907.63520
  Cscale		| 128.99208
  Pmove		| 0.27902
  Similarity	| -nan
  Total_Score	| 6.9428
  Crash		| -5.2826
  Polar		| 0.0023
  Similarity	| -nan
