#	Name:			2_34a_009-p0
#	Creating user name:	Mariana
#	Creation time:		Wed Jan 11 14:15:59 2017

#	Modifying user name:	Mariana
#	Modification time:	Wed Jan 11 14:15:59 2017

@<TRIPOS>MOLECULE
2_34a_009-p0
   52    56     1    15     0
SMALL
NO_CHARGES


@<TRIPOS>ATOM
      1 C          21.5233   38.7379   65.5137 C.ar      1 UNN         0.0000 
      2 C1         20.3014   39.1698   64.9553 C.ar      1 UNN         0.0000 
      3 C2         20.2691   40.2924   64.1047 C.ar      1 UNN         0.0000 
      4 C3         21.4720   40.9665   63.8361 C.ar      1 UNN         0.0000 
      5 C4         22.6993   40.5497   64.3777 C.ar      1 UNN         0.0000 
      6 C5         22.7225   39.4220   65.2248 C.ar      1 UNN         0.0000 
      7 S          21.7723   42.3545   62.8717 S.3       1 UNN         0.0000 
      8 C6         23.4755   42.4084   63.1298 C.ar      1 UNN         0.0000 
      9 C7         23.8003   41.3527   64.0069 C.ar      1 UNN         0.0000 
     10 O          25.0671   41.0969   64.4686 O.3       1 UNN         0.0000 
     11 C11        25.5332   41.9547   65.5386 C.3       1 UNN         0.0000 
     12 C12        27.0579   41.7123   65.7075 C.3       1 UNN         0.0000 
     13 C13        27.6460   42.5652   66.8621 C.3       1 UNN         0.0000 
     14 N14        26.8832   42.4071   68.1219 N.3       1 UNN         0.0000 
     15 C15        25.4219   42.6032   68.0017 C.3       1 UNN         0.0000 
     16 C16        24.8148   41.7066   66.8968 C.3       1 UNN         0.0000 
     17 C8         24.3096   43.3466   62.5569 C.ar      1 UNN         0.0000 
     18 O1         23.8691   44.4349   61.9476 O.3       1 UNN         0.0000 
     19 C14        25.0300   44.9818   61.6258 C.ar      1 UNN         0.0000 
     20 N1         26.0212   44.2657   61.9880 N.ar      1 UNN         0.0000 
     21 N3         25.5838   43.2790   62.5513 N.ar      1 UNN         0.0000 
     22 C9         25.1456   46.2483   60.9390 C.3       1 UNN         0.0000 
     23 C10        24.6692   47.3584   61.7969 C.ar      1 UNN         0.0000 
     24 C17        23.4185   47.9791   61.8000 C.ar      1 UNN         0.0000 
     25 N25        24.6201   48.9741   63.3190 N.ar      1 UNN         0.0000 
     26 N26        23.4677   48.9449   62.7325 N.ar      1 UNN         0.0000 
     27 C18        25.4015   48.0163   62.7893 C.ar      1 UNN         0.0000 
     28 C19        26.7922   47.7639   63.2022 C.3       1 UNN         0.0000 
     29 C20        22.2121   47.6958   61.0021 C.3       1 UNN         0.0000 
     30 H1         21.5389   37.9262   66.1330 H         1 UNN         0.0000 
     31 H2         19.4358   38.6710   65.1745 H         1 UNN         0.0000 
     32 H3         19.3897   40.6097   63.6968 H         1 UNN         0.0000 
     33 H4         23.6005   39.0985   65.6360 H         1 UNN         0.0000 
     34 H5         25.3960   43.0066   65.2616 H         1 UNN         0.0000 
     35 H6         27.5739   41.9704   64.7797 H         1 UNN         0.0000 
     36 H7         27.2392   40.6525   65.9117 H         1 UNN         0.0000 
     37 H8         27.6479   43.6202   66.5772 H         1 UNN         0.0000 
     38 H9         28.6790   42.2631   67.0462 H         1 UNN         0.0000 
     39 H10        27.2464   43.0406   68.8303 H         1 UNN         0.0000 
     40 H11        25.2181   43.6544   67.7797 H         1 UNN         0.0000 
     41 H12        24.9583   42.3597   68.9588 H         1 UNN         0.0000 
     42 H13        23.7504   41.9318   66.8085 H         1 UNN         0.0000 
     43 H14        24.9192   40.6577   67.1864 H         1 UNN         0.0000 
     44 H15        24.5673   46.1986   60.0163 H         1 UNN         0.0000 
     45 H16        26.1822   46.4391   60.6489 H         1 UNN         0.0000 
     46 H17        22.7343   49.5448   62.9404 H         1 UNN         0.0000 
     47 H18        26.8939   46.7365   63.5541 H         1 UNN         0.0000 
     48 H19        27.0856   48.4412   64.0065 H         1 UNN         0.0000 
     49 H20        27.4619   47.9194   62.3560 H         1 UNN         0.0000 
     50 H21        22.3567   46.8553   60.3238 H         1 UNN         0.0000 
     51 H22        21.9490   48.5777   60.4165 H         1 UNN         0.0000 
     52 H23        21.3852   47.4552   61.6713 H         1 UNN         0.0000 
@<TRIPOS>BOND
     1    1    2 ar   
     2    6    1 ar   
     3   10   11 1    
     4    3    2 ar   
     5   11   12 1    
     6    4    3 ar   
     7   12   13 1    
     8    5    4 ar   
     9    7    4 ar   
    10    5    6 ar   
    11    9    5 ar   
    12   13   14 1    
    13    8    7 ar   
    14    9    8 ar   
    15    8   17 1    
    16    9   10 1    
    17   14   15 1    
    18   15   16 1    
    19   11   16 1    
    20    1   30 1    
    21    2   31 1    
    22    3   32 1    
    23    6   33 1    
    24   11   34 1    
    25   12   35 1    
    26   12   36 1    
    27   13   37 1    
    28   13   38 1    
    29   14   39 1    
    30   15   40 1    
    31   15   41 1    
    32   16   42 1    
    33   16   43 1    
    34   17   18 ar   
    35   17   21 ar   
    36   18   19 ar   
    37   19   20 ar   
    38   19   22 1    
    39   21   20 ar   
    40   22   23 1    
    41   22   44 1    
    42   22   45 1    
    43   23   24 ar   
    44   23   27 ar   
    45   27   25 ar   
    46   24   29 1    
    47   25   26 ar   
    48   26   46 ar   
    49   24   26 ar   
    50   27   28 1    
    51   28   47 1    
    52   28   48 1    
    53   28   49 1    
    54   29   50 1    
    55   29   51 1    
    56   29   52 1    
@<TRIPOS>SUBSTRUCTURE
     1 UNN         1 TEMP              0 ****  ****    0 ROOT 
@<TRIPOS>NORMAL
@<TRIPOS>PROPERTY_DATA
  Total_Score	| 12.3653
 Crash		| -1.5031
  Polar		| 2.1280
  Strain		| 0.5298
  Total		| 11.83548
  Ligmin		| 75.72482
  Full		| 59.75352
  Complex		| 890.13542
  Cscale		| 118.68472
  Pmove		| 0.21466
  Similarity	| -nan
  Total_Score	| 7.8812
  Crash		| -3.4765
  Polar		| 0.2715
  Similarity	| -nan
