#	Name:			2_34b_004-p0
#	Creating user name:	Mariana
#	Creation time:		Wed Jan 11 14:16:18 2017

#	Modifying user name:	Mariana
#	Modification time:	Wed Jan 11 14:16:18 2017

@<TRIPOS>MOLECULE
2_34b_004-p0
   51    55     1    15     0
SMALL
NO_CHARGES


@<TRIPOS>ATOM
      1 C          21.5094   38.7361   65.3897 C.ar      1 UNN         0.0000 
      2 C1         20.2907   39.1854   64.8389 C.ar      1 UNN         0.0000 
      3 C2         20.2660   40.3216   64.0072 C.ar      1 UNN         0.0000 
      4 C3         21.4740   40.9891   63.7454 C.ar      1 UNN         0.0000 
      5 C4         22.6979   40.5577   64.2820 C.ar      1 UNN         0.0000 
      6 C5         22.7131   39.4182   65.1126 C.ar      1 UNN         0.0000 
      7 S          21.7808   42.3938   62.8087 S.3       1 UNN         0.0000 
      8 C6         23.4834   42.4374   63.0699 C.ar      1 UNN         0.0000 
      9 C7         23.8017   41.3663   63.9306 C.ar      1 UNN         0.0000 
     10 O          25.0625   41.1297   64.4195 O.3       1 UNN         0.0000 
     11 C11        25.4712   41.9977   65.5051 C.3       1 UNN         0.0000 
     12 C12        27.0066   41.8585   65.6890 C.3       1 UNN         0.0000 
     13 C13        27.5175   42.7470   66.8532 C.3       1 UNN         0.0000 
     14 N14        26.7562   42.5178   68.1039 N.3       1 UNN         0.0000 
     15 C15        25.2858   42.6087   67.9707 C.3       1 UNN         0.0000 
     16 C16        24.7572   41.6824   66.8515 C.3       1 UNN         0.0000 
     17 C8         24.3207   43.3942   62.5323 C.ar      1 UNN         0.0000 
     18 O1         23.8932   44.5594   62.0759 O.3       1 UNN         0.0000 
     19 C14        25.0532   45.0894   61.7257 C.ar      1 UNN         0.0000 
     20 N1         26.0302   44.2969   61.9339 N.ar      1 UNN         0.0000 
     21 N2         25.5860   43.2738   62.4223 N.ar      1 UNN         0.0000 
     22 C9         25.1789   46.4225   61.1818 C.3       1 UNN         0.0000 
     23 C10        25.0642   47.4329   62.2588 C.ar      1 UNN         0.0000 
     24 C17        23.9252   48.1320   62.6553 C.ar      1 UNN         0.0000 
     25 O2         24.2721   48.9391   63.6845 O.3       1 UNN         0.0000 
     26 N3         25.5405   48.7832   63.9518 N.ar      1 UNN         0.0000 
     27 C18        26.0719   47.8722   63.1182 C.ar      1 UNN         0.0000 
     28 C19        27.4822   47.4491   63.1437 C.3       1 UNN         0.0000 
     29 C20        22.5634   48.0338   62.1084 C.3       1 UNN         0.0000 
     30 H1         21.5194   37.9136   65.9949 H         1 UNN         0.0000 
     31 H2         19.4220   38.6879   65.0479 H         1 UNN         0.0000 
     32 H3         19.3887   40.6547   63.6091 H         1 UNN         0.0000 
     33 H4         23.5887   39.0848   65.5202 H         1 UNN         0.0000 
     34 H5         25.2718   43.0441   65.2457 H         1 UNN         0.0000 
     35 H6         27.5146   42.1544   64.7679 H         1 UNN         0.0000 
     36 H7         27.2579   40.8139   65.8937 H         1 UNN         0.0000 
     37 H8         27.4392   43.8006   66.5750 H         1 UNN         0.0000 
     38 H9         28.5696   42.5267   67.0436 H         1 UNN         0.0000 
     39 H10        27.0690   43.1650   68.8263 H         1 UNN         0.0000 
     40 H11        25.0101   43.6435   67.7514 H         1 UNN         0.0000 
     41 H12        24.8288   42.3257   68.9203 H         1 UNN         0.0000 
     42 H13        23.6807   41.8321   66.7536 H         1 UNN         0.0000 
     43 H14        24.9320   40.6399   67.1310 H         1 UNN         0.0000 
     44 H15        24.3984   46.5707   60.4330 H         1 UNN         0.0000 
     45 H16        26.1385   46.5435   60.6728 H         1 UNN         0.0000 
     46 H17        27.5443   46.3770   63.3321 H         1 UNN         0.0000 
     47 H18        28.0297   47.9772   63.9269 H         1 UNN         0.0000 
     48 H19        27.9516   47.6673   62.1852 H         1 UNN         0.0000 
     49 H20        22.5645   48.3209   61.0560 H         1 UNN         0.0000 
     50 H21        21.8892   48.6962   62.6537 H         1 UNN         0.0000 
     51 H22        22.1995   47.0097   62.2026 H         1 UNN         0.0000 
@<TRIPOS>BOND
     1    1    2 ar   
     2    6    1 ar   
     3   10   11 1    
     4    3    2 ar   
     5   11   12 1    
     6    4    3 ar   
     7   12   13 1    
     8    5    4 ar   
     9    7    4 ar   
    10    5    6 ar   
    11    9    5 ar   
    12   13   14 1    
    13    8    7 ar   
    14    9    8 ar   
    15    8   17 1    
    16    9   10 1    
    17   14   15 1    
    18   15   16 1    
    19   11   16 1    
    20    1   30 1    
    21    2   31 1    
    22    3   32 1    
    23    6   33 1    
    24   11   34 1    
    25   12   35 1    
    26   12   36 1    
    27   13   37 1    
    28   13   38 1    
    29   14   39 1    
    30   15   40 1    
    31   15   41 1    
    32   16   42 1    
    33   16   43 1    
    34   17   18 ar   
    35   17   21 ar   
    36   18   19 ar   
    37   19   20 ar   
    38   19   22 1    
    39   21   20 ar   
    40   22   23 1    
    41   22   44 1    
    42   22   45 1    
    43   23   24 ar   
    44   23   27 ar   
    45   24   25 ar   
    46   24   29 1    
    47   25   26 ar   
    48   27   26 ar   
    49   27   28 1    
    50   28   46 1    
    51   28   47 1    
    52   28   48 1    
    53   29   49 1    
    54   29   50 1    
    55   29   51 1    
@<TRIPOS>SUBSTRUCTURE
     1 UNN         1 TEMP              0 ****  ****    0 ROOT 
@<TRIPOS>NORMAL
@<TRIPOS>PROPERTY_DATA
  Total_Score	| 12.5962
 Crash		| -1.3707
  Polar		| 2.3876
  Strain		| 1.0278
  Total		| 11.56839
  Ligmin		| 73.64000
  Full		| 58.52506
  Complex		| 891.80399
  Cscale		| 113.98998
  Pmove		| 0.28312
  Similarity	| -nan
  Total_Score	| 8.5544
  Crash		| -3.4373
  Polar		| 0.1791
  Similarity	| -nan
