#	Name:			2_34c_008-p0
#	Creating user name:	Mariana
#	Creation time:		Wed Jan 11 14:16:32 2017

#	Modifying user name:	Mariana
#	Modification time:	Wed Jan 11 14:16:32 2017

@<TRIPOS>MOLECULE
2_34c_008-p0
   55    59     1    15     0
SMALL
NO_CHARGES


@<TRIPOS>ATOM
      1 C          21.4394   38.6736   65.3607 C.ar      1 UNN         0.0000 
      2 C1         20.1626   39.0785   64.9183 C.ar      1 UNN         0.0000 
      3 C2         20.0201   40.2401   64.1344 C.ar      1 UNN         0.0000 
      4 C3         21.1698   40.9820   63.8163 C.ar      1 UNN         0.0000 
      5 C4         22.4507   40.5974   64.2445 C.ar      1 UNN         0.0000 
      6 C5         22.5834   39.4257   65.0210 C.ar      1 UNN         0.0000 
      7 S          21.3343   42.4427   62.9301 S.3       1 UNN         0.0000 
      8 C6         23.0454   42.5736   63.0788 C.ar      1 UNN         0.0000 
      9 C7         23.4824   41.4859   63.8596 C.ar      1 UNN         0.0000 
     10 O          24.7859   41.3206   64.2577 O.3       1 UNN         0.0000 
     11 C11        25.0486   41.6947   65.6343 C.3       1 UNN         0.0000 
     12 C12        25.4277   43.1996   65.7936 C.3       1 UNN         0.0000 
     13 C13        26.1292   43.5239   67.1497 C.3       1 UNN         0.0000 
     14 N14        25.9548   42.4317   68.1341 N.3       1 UNN         0.0000 
     15 C15        26.4697   41.1136   67.6843 C.3       1 UNN         0.0000 
     16 C16        26.1973   40.8086   66.1807 C.3       1 UNN         0.0000 
     17 C8         23.7847   43.5962   62.5228 C.ar      1 UNN         0.0000 
     18 O1         23.2421   44.7050   62.0480 O.3       1 UNN         0.0000 
     19 C14        24.3424   45.3290   61.6596 C.ar      1 UNN         0.0000 
     20 N1         25.3917   44.6380   61.8739 N.ar      1 UNN         0.0000 
     21 N2         25.0535   43.5900   62.3954 N.ar      1 UNN         0.0000 
     22 C9         24.3321   46.6568   61.0854 C.3       1 UNN         0.0000 
     23 C10        24.3886   47.6868   62.1521 C.ar      1 UNN         0.0000 
     24 C17        25.4946   48.0655   62.9204 C.ar      1 UNN         0.0000 
     25 N3         25.0686   49.0099   63.7929 N.ar      1 UNN         0.0000 
     26 N4         23.8069   49.2500   63.6092 N.ar      1 UNN         0.0000 
     27 C18        23.3379   48.4784   62.6151 C.ar      1 UNN         0.0000 
     28 C19        21.9412   48.5038   62.1507 C.3       1 UNN         0.0000 
     29 C20        26.8838   47.5662   62.8041 C.3       1 UNN         0.0000 
     30 C21        25.8409   49.6788   64.7932 C.3       1 UNN         0.0000 
     31 H1         21.5355   37.8308   65.9311 H         1 UNN         0.0000 
     32 H2         19.3367   38.5316   65.1732 H         1 UNN         0.0000 
     33 H3         19.0995   40.5408   63.8161 H         1 UNN         0.0000 
     34 H4         23.5017   39.1230   65.3523 H         1 UNN         0.0000 
     35 H5         24.1754   41.4946   66.2701 H         1 UNN         0.0000 
     36 H6         24.5187   43.7998   65.7000 H         1 UNN         0.0000 
     37 H7         26.0994   43.4893   64.9826 H         1 UNN         0.0000 
     38 H8         25.7156   44.4421   67.5723 H         1 UNN         0.0000 
     39 H9         27.1995   43.6827   66.9914 H         1 UNN         0.0000 
     40 H10        24.9573   42.3545   68.3403 H         1 UNN         0.0000 
     41 H11        25.9830   40.3527   68.2978 H         1 UNN         0.0000 
     42 H12        27.5425   41.0638   67.8818 H         1 UNN         0.0000 
     43 H13        25.9441   39.7519   66.0581 H         1 UNN         0.0000 
     44 H14        27.1028   41.0010   65.5983 H         1 UNN         0.0000 
     45 H15        23.4242   46.7639   60.4883 H         1 UNN         0.0000 
     46 H16        25.1752   46.7943   60.4044 H         1 UNN         0.0000 
     47 H17        21.9087   48.7784   61.0954 H         1 UNN         0.0000 
     48 H18        21.3628   49.2356   62.7177 H         1 UNN         0.0000 
     49 H19        21.4901   47.5194   62.2831 H         1 UNN         0.0000 
     50 H20        27.1991   47.1169   63.7422 H         1 UNN         0.0000 
     51 H21        27.5476   48.3970   62.5804 H         1 UNN         0.0000 
     52 H22        26.9930   46.8249   62.0147 H         1 UNN         0.0000 
     53 H23        26.6516   50.2341   64.3212 H         1 UNN         0.0000 
     54 H24        26.2626   48.9497   65.4876 H         1 UNN         0.0000 
     55 H25        25.2306   50.3832   65.3643 H         1 UNN         0.0000 
@<TRIPOS>BOND
     1    1    2 ar   
     2    6    1 ar   
     3   10   11 1    
     4    3    2 ar   
     5   11   12 1    
     6    4    3 ar   
     7   12   13 1    
     8    5    4 ar   
     9    7    4 ar   
    10    5    6 ar   
    11    9    5 ar   
    12   13   14 1    
    13    8    7 ar   
    14    9    8 ar   
    15    8   17 1    
    16    9   10 1    
    17   14   15 1    
    18   15   16 1    
    19   11   16 1    
    20    1   31 1    
    21    2   32 1    
    22    3   33 1    
    23    6   34 1    
    24   11   35 1    
    25   12   36 1    
    26   12   37 1    
    27   13   38 1    
    28   13   39 1    
    29   14   40 1    
    30   15   41 1    
    31   15   42 1    
    32   16   43 1    
    33   16   44 1    
    34   17   18 ar   
    35   17   21 ar   
    36   18   19 ar   
    37   19   20 ar   
    38   19   22 1    
    39   21   20 ar   
    40   22   23 1    
    41   22   45 1    
    42   22   46 1    
    43   23   24 ar   
    44   23   27 ar   
    45   24   25 ar   
    46   24   29 1    
    47   25   26 ar   
    48   25   30 1    
    49   27   26 ar   
    50   27   28 1    
    51   28   47 1    
    52   28   48 1    
    53   28   49 1    
    54   29   50 1    
    55   29   51 1    
    56   29   52 1    
    57   30   53 1    
    58   30   54 1    
    59   30   55 1    
@<TRIPOS>SUBSTRUCTURE
     1 UNN         1 TEMP              0 ****  ****    0 ROOT 
@<TRIPOS>NORMAL
@<TRIPOS>PROPERTY_DATA
  Total_Score	| 13.6300
 Crash		| -1.8691
  Polar		| 0.9112
  Strain		| 1.5571
  Total		| 12.07284
  Ligmin		| 85.14399
  Full		| 69.23169
  Complex		| 912.40218
  Cscale		| 120.05292
  Pmove		| 0.27445
  Similarity	| -nan
  Total_Score	| 8.8019
  Crash		| -3.5331
  Polar		| 0.3411
  Similarity	| -nan
