#	Name:			2_35a_007-p0
#	Creating user name:	Mariana
#	Creation time:		Wed Jan 11 14:16:46 2017

#	Modifying user name:	Mariana
#	Modification time:	Wed Jan 11 14:16:46 2017

@<TRIPOS>MOLECULE
2_35a_007-p0
   55    59     1    15     0
SMALL
NO_CHARGES


@<TRIPOS>ATOM
      1 C          29.1907   46.3708   61.0158 C.ar      1 UNN         0.0000 
      2 C1         29.7997   45.3245   61.7362 C.ar      1 UNN         0.0000 
      3 C2         29.0147   44.3087   62.3130 C.ar      1 UNN         0.0000 
      4 C3         27.6183   44.3899   62.1832 C.ar      1 UNN         0.0000 
      5 C4         26.9800   45.4542   61.5201 C.ar      1 UNN         0.0000 
      6 C5         27.7854   46.4290   60.8918 C.ar      1 UNN         0.0000 
      7 S          26.4048   43.3045   62.7237 S.3       1 UNN         0.0000 
      8 C6         25.0634   44.2153   62.1446 C.ar      1 UNN         0.0000 
      9 C7         25.5638   45.3847   61.5462 C.ar      1 UNN         0.0000 
     10 O          24.7182   46.3006   60.9732 O.3       1 UNN         0.0000 
     11 C11        24.6250   47.6218   61.5641 C.3       1 UNN         0.0000 
     12 C12        24.1329   47.6618   63.0525 C.3       1 UNN         0.0000 
     13 C13        22.6784   48.1730   63.2404 C.3       1 UNN         0.0000 
     14 N14        21.7994   47.6800   62.1632 N.3       1 UNN         0.0000 
     15 C15        22.2085   48.0014   60.7722 C.3       1 UNN         0.0000 
     16 C16        23.6909   48.4398   60.6270 C.3       1 UNN         0.0000 
     17 C8         23.7550   43.8096   62.2963 C.ar      1 UNN         0.0000 
     18 O1         23.4296   42.5661   62.6126 O.3       1 UNN         0.0000 
     19 C14        22.1160   42.6987   62.7188 C.ar      1 UNN         0.0000 
     20 N1         21.7364   43.8858   62.4528 N.ar      1 UNN         0.0000 
     21 N2         22.7227   44.5526   62.1932 N.ar      1 UNN         0.0000 
     22 C9         21.2000   41.6261   63.0501 C.3       1 UNN         0.0000 
     23 C10        21.8223   40.2014   63.1635 C.3       1 UNN         0.0000 
     24 C17        22.2839   39.8112   64.5246 C.ar      1 UNN         0.0000 
     25 C18        23.5144   40.0942   65.1333 C.ar      1 UNN         0.0000 
     26 N3         23.5441   39.4787   66.3238 N.ar      1 UNN         0.0000 
     27 N4         22.4325   38.8420   66.4966 N.ar      1 UNN         0.0000 
     28 C19        21.6236   38.9825   65.4373 C.ar      1 UNN         0.0000 
     29 C20        20.2997   38.3368   65.3848 C.3       1 UNN         0.0000 
     30 C21        24.6477   40.8941   64.6457 C.3       1 UNN         0.0000 
     31 H1         29.7664   47.0904   60.5751 H         1 UNN         0.0000 
     32 H2         30.8182   45.2887   61.8216 H         1 UNN         0.0000 
     33 H3         29.4491   43.5267   62.8101 H         1 UNN         0.0000 
     34 H4         27.3599   47.1702   60.3371 H         1 UNN         0.0000 
     35 H5         25.6087   48.0948   61.5212 H         1 UNN         0.0000 
     36 H6         24.7941   48.3123   63.6352 H         1 UNN         0.0000 
     37 H7         24.2060   46.6685   63.4967 H         1 UNN         0.0000 
     38 H8         22.6640   49.2672   63.2385 H         1 UNN         0.0000 
     39 H9         22.2860   47.8354   64.2032 H         1 UNN         0.0000 
     40 H10        21.6898   46.6688   62.2565 H         1 UNN         0.0000 
     41 H11        21.5594   48.7979   60.3980 H         1 UNN         0.0000 
     42 H12        22.0311   47.1131   60.1636 H         1 UNN         0.0000 
     43 H13        23.7690   49.4982   60.8889 H         1 UNN         0.0000 
     44 H14        24.0095   48.3354   59.5853 H         1 UNN         0.0000 
     45 H15        20.4475   41.6012   62.2549 H         1 UNN         0.0000 
     46 H16        20.6763   41.8787   63.9734 H         1 UNN         0.0000 
     47 H17        22.6471   40.0833   62.4601 H         1 UNN         0.0000 
     48 H18        21.0627   39.4930   62.8356 H         1 UNN         0.0000 
     49 H19        22.2189   38.3324   67.2950 H         1 UNN         0.0000 
     50 H20        20.4258   37.2533   65.4242 H         1 UNN         0.0000 
     51 H21        19.7554   38.5911   64.4766 H         1 UNN         0.0000 
     52 H22        19.7026   38.6541   66.2428 H         1 UNN         0.0000 
     53 H23        24.3887   41.9509   64.6846 H         1 UNN         0.0000 
     54 H24        25.5269   40.7361   65.2716 H         1 UNN         0.0000 
     55 H25        24.8984   40.6071   63.6225 H         1 UNN         0.0000 
@<TRIPOS>BOND
     1    1    2 ar   
     2    6    1 ar   
     3   10   11 1    
     4    3    2 ar   
     5   11   12 1    
     6    4    3 ar   
     7   12   13 1    
     8    5    4 ar   
     9    7    4 ar   
    10    5    6 ar   
    11    9    5 ar   
    12   13   14 1    
    13    8    7 ar   
    14    9    8 ar   
    15    8   17 1    
    16    9   10 1    
    17   14   15 1    
    18   15   16 1    
    19   11   16 1    
    20    1   31 1    
    21    2   32 1    
    22    3   33 1    
    23    6   34 1    
    24   11   35 1    
    25   12   36 1    
    26   12   37 1    
    27   13   38 1    
    28   13   39 1    
    29   14   40 1    
    30   15   41 1    
    31   15   42 1    
    32   16   43 1    
    33   16   44 1    
    34   17   18 ar   
    35   17   21 ar   
    36   18   19 ar   
    37   19   20 ar   
    38   19   22 1    
    39   21   20 ar   
    40   22   23 1    
    41   22   45 1    
    42   22   46 1    
    43   23   24 1    
    44   23   47 1    
    45   23   48 1    
    46   24   25 ar   
    47   24   28 ar   
    48   25   26 ar   
    49   25   30 1    
    50   26   27 ar   
    51   28   27 ar   
    52   27   49 ar   
    53   28   29 1    
    54   29   50 1    
    55   29   51 1    
    56   29   52 1    
    57   30   53 1    
    58   30   54 1    
    59   30   55 1    
@<TRIPOS>SUBSTRUCTURE
     1 UNN         1 TEMP              0 ****  ****    0 ROOT 
@<TRIPOS>NORMAL
@<TRIPOS>PROPERTY_DATA
  Total_Score	| 10.8142
 Crash		| -1.8967
  Polar		| 2.1477
  Strain		| 5.5635
  Total		| 5.25074
  Ligmin		| 85.63525
  Full		| 79.01868
  Complex		| 900.34236
  Cscale		| 131.69902
  Pmove		| 0.21162
  Similarity	| -nan
  Total_Score	| 8.5661
  Crash		| -2.7244
  Polar		| 0.9231
  Similarity	| -nan
