#	Name:			2_35b_002-p0
#	Creating user name:	Mariana
#	Creation time:		Wed Jan 11 14:17:03 2017

#	Modifying user name:	Mariana
#	Modification time:	Wed Jan 11 14:17:03 2017

@<TRIPOS>MOLECULE
2_35b_002-p0
   54    58     1    15     0
SMALL
NO_CHARGES


@<TRIPOS>ATOM
      1 C          21.5272   38.6798   65.4698 C.ar      1 UNN         0.0000 
      2 C1         20.2629   39.0251   64.9490 C.ar      1 UNN         0.0000 
      3 C2         20.1222   40.1726   64.1470 C.ar      1 UNN         0.0000 
      4 C3         21.2588   40.9579   63.8987 C.ar      1 UNN         0.0000 
      5 C4         22.5251   40.6543   64.4263 C.ar      1 UNN         0.0000 
      6 C5         22.6574   39.4826   65.2043 C.ar      1 UNN         0.0000 
      7 S          21.4153   42.3681   62.9401 S.3       1 UNN         0.0000 
      8 C6         23.0991   42.6086   63.2161 C.ar      1 UNN         0.0000 
      9 C7         23.5354   41.5914   64.0879 C.ar      1 UNN         0.0000 
     10 O          24.8534   41.4475   64.4444 O.3       1 UNN         0.0000 
     11 C8         25.1962   41.5325   65.8498 C.3       1 UNN         0.0000 
     12 C9         25.5667   42.9899   66.2404 C.3       1 UNN         0.0000 
     13 C10        26.1984   43.0411   67.6621 C.3       1 UNN         0.0000 
     14 N          27.2285   41.9996   67.9225 N.3       1 UNN         0.0000 
     15 C11        27.6081   41.1334   66.7896 C.3       1 UNN         0.0000 
     16 C12        26.3485   40.5106   66.1391 C.3       1 UNN         0.0000 
     17 C13        23.8102   43.6359   62.6338 C.ar      1 UNN         0.0000 
     18 O1         24.9325   44.1640   63.0966 O.3       1 UNN         0.0000 
     19 C14        25.1145   45.1106   62.1880 C.ar      1 UNN         0.0000 
     20 N1         24.2226   45.0764   61.2766 N.ar      1 UNN         0.0000 
     21 N2         23.4310   44.1947   61.5513 N.ar      1 UNN         0.0000 
     22 C15        26.2092   46.0632   62.1889 C.3       1 UNN         0.0000 
     23 C16        25.8019   47.5357   61.8866 C.3       1 UNN         0.0000 
     24 C17        24.7642   48.1137   62.7792 C.ar      1 UNN         0.0000 
     25 C18        23.3922   48.2222   62.5321 C.ar      1 UNN         0.0000 
     26 N3         22.8256   48.8612   63.5686 N.ar      1 UNN         0.0000 
     27 O2         23.7443   49.1968   64.4344 O.3       1 UNN         0.0000 
     28 C19        24.9560   48.7848   63.9882 C.ar      1 UNN         0.0000 
     29 C20        26.2011   49.1308   64.6899 C.3       1 UNN         0.0000 
     30 C21        22.6318   47.7941   61.3462 C.3       1 UNN         0.0000 
     31 H          21.6242   37.8402   66.0413 H         1 UNN         0.0000 
     32 H1         19.4493   38.4361   65.1451 H         1 UNN         0.0000 
     33 H2         19.2149   40.4295   63.7569 H         1 UNN         0.0000 
     34 H3         23.5643   39.2072   65.5844 H         1 UNN         0.0000 
     35 H4         24.3477   41.2497   66.4887 H         1 UNN         0.0000 
     36 H5         26.2839   43.3868   65.5189 H         1 UNN         0.0000 
     37 H6         24.6728   43.6196   66.2117 H         1 UNN         0.0000 
     38 H7         25.4094   42.9123   68.4027 H         1 UNN         0.0000 
     39 H8         26.6504   44.0220   67.8234 H         1 UNN         0.0000 
     40 H9         26.9227   41.4080   68.7012 H         1 UNN         0.0000 
     41 H10        28.2704   40.3443   67.1545 H         1 UNN         0.0000 
     42 H11        28.1588   41.7220   66.0519 H         1 UNN         0.0000 
     43 H12        25.9740   39.7275   66.8030 H         1 UNN         0.0000 
     44 H13        26.6617   40.0165   65.2158 H         1 UNN         0.0000 
     45 H14        26.7316   46.0172   63.1486 H         1 UNN         0.0000 
     46 H15        26.9136   45.7453   61.4184 H         1 UNN         0.0000 
     47 H16        26.6945   48.1603   61.9553 H         1 UNN         0.0000 
     48 H17        25.4698   47.5944   60.8457 H         1 UNN         0.0000 
     49 H18        27.0754   48.6968   64.2115 H         1 UNN         0.0000 
     50 H19        26.3129   50.2194   64.6983 H         1 UNN         0.0000 
     51 H20        26.1471   48.7816   65.7206 H         1 UNN         0.0000 
     52 H21        21.5951   48.1027   61.4168 H         1 UNN         0.0000 
     53 H22        23.0632   48.2551   60.4508 H         1 UNN         0.0000 
     54 H23        22.6703   46.7100   61.2410 H         1 UNN         0.0000 
@<TRIPOS>BOND
     1    1    2 ar   
     2    1    6 ar   
     3    1   31 1    
     4    2    3 ar   
     5    2   32 1    
     6    3    4 ar   
     7    3   33 1    
     8    4    5 ar   
     9    4    7 ar   
    10    5    6 ar   
    11    5    9 ar   
    12    6   34 1    
    13    7    8 ar   
    14    8    9 ar   
    15    8   17 1    
    16    9   10 1    
    17   10   11 1    
    18   11   12 1    
    19   11   16 1    
    20   11   35 1    
    21   12   13 1    
    22   12   36 1    
    23   12   37 1    
    24   13   14 1    
    25   13   38 1    
    26   13   39 1    
    27   14   15 1    
    28   14   40 1    
    29   15   16 1    
    30   15   41 1    
    31   15   42 1    
    32   16   43 1    
    33   16   44 1    
    34   17   18 ar   
    35   17   21 ar   
    36   18   19 ar   
    37   19   20 ar   
    38   19   22 1    
    39   20   21 ar   
    40   22   23 1    
    41   22   45 1    
    42   22   46 1    
    43   23   24 1    
    44   23   47 1    
    45   23   48 1    
    46   24   25 ar   
    47   24   28 ar   
    48   25   26 ar   
    49   25   30 1    
    50   26   27 ar   
    51   27   28 ar   
    52   28   29 1    
    53   29   49 1    
    54   29   50 1    
    55   29   51 1    
    56   30   52 1    
    57   30   53 1    
    58   30   54 1    
@<TRIPOS>SUBSTRUCTURE
     1 UNN         1 TEMP              0 ****  ****    0 ROOT 
@<TRIPOS>NORMAL
@<TRIPOS>PROPERTY_DATA
  Total_Score	| 14.2171
 Crash		| -1.9826
  Polar		| 4.5986
  Strain		| 7.7269
  Total		| 6.49019
  Ligmin		| 81.01041
  Full		| 72.80215
  Complex		| 909.63503
  Cscale		| 118.07762
  Pmove		| 0.21999
  Similarity	| -nan
  Total_Score	| 10.0424
  Crash		| -3.6521
  Polar		| 2.9088
  Similarity	| -nan
