#	Name:			2_35c_008-p0
#	Creating user name:	Mariana
#	Creation time:		Wed Jan 11 14:17:22 2017

#	Modifying user name:	Mariana
#	Modification time:	Wed Jan 11 14:17:22 2017

@<TRIPOS>MOLECULE
2_35c_008-p0
   58    62     1    15     0
SMALL
NO_CHARGES


@<TRIPOS>ATOM
      1 C          21.6286   38.7991   65.1837 C.ar      1 UNN         0.0000 
      2 C1         20.3820   39.2098   64.6653 C.ar      1 UNN         0.0000 
      3 C2         20.2933   40.3679   63.8686 C.ar      1 UNN         0.0000 
      4 C3         21.4635   41.1048   63.6182 C.ar      1 UNN         0.0000 
      5 C4         22.7148   40.7153   64.1229 C.ar      1 UNN         0.0000 
      6 C5         22.7952   39.5435   64.9060 C.ar      1 UNN         0.0000 
      7 S          21.6886   42.5460   62.7134 S.3       1 UNN         0.0000 
      8 C6         23.3908   42.6664   62.9540 C.ar      1 UNN         0.0000 
      9 C7         23.7741   41.5910   63.7811 C.ar      1 UNN         0.0000 
     10 O          25.0665   41.4036   64.2086 O.3       1 UNN         0.0000 
     11 C11        25.3105   41.7336   65.5986 C.3       1 UNN         0.0000 
     12 C12        25.5316   43.2587   65.8517 C.3       1 UNN         0.0000 
     13 C13        26.2571   43.5695   67.1967 C.3       1 UNN         0.0000 
     14 N14        26.1917   42.4201   68.1281 N.3       1 UNN         0.0000 
     15 C15        26.8085   41.1756   67.6042 C.3       1 UNN         0.0000 
     16 C16        26.5474   40.9358   66.0873 C.3       1 UNN         0.0000 
     17 C8         24.1743   43.6569   62.3979 C.ar      1 UNN         0.0000 
     18 O1         23.6905   44.6617   61.6863 O.3       1 UNN         0.0000 
     19 C14        24.8183   45.3016   61.4245 C.ar      1 UNN         0.0000 
     20 N1         25.8354   44.6966   61.9003 N.ar      1 UNN         0.0000 
     21 N2         25.4447   43.7072   62.4897 N.ar      1 UNN         0.0000 
     22 C9         24.9078   46.4927   60.6026 C.3       1 UNN         0.0000 
     23 C10        23.9174   47.6259   60.9765 C.3       1 UNN         0.0000 
     24 C17        23.9640   48.2788   62.3147 C.ar      1 UNN         0.0000 
     25 C18        22.8957   49.0174   62.8332 C.ar      1 UNN         0.0000 
     26 N3         23.2892   49.5948   63.9757 N.ar      1 UNN         0.0000 
     27 N4         24.5330   49.3062   64.2006 N.ar      1 UNN         0.0000 
     28 C19        25.0152   48.5080   63.2165 C.ar      1 UNN         0.0000 
     29 C20        26.4104   48.0262   63.1125 C.3       1 UNN         0.0000 
     30 C21        21.5598   49.2271   62.2481 C.3       1 UNN         0.0000 
     31 C22        25.2368   49.8547   65.3132 C.3       1 UNN         0.0000 
     32 H1         21.6877   37.9554   65.7579 H         1 UNN         0.0000 
     33 H2         19.5411   38.6631   64.8658 H         1 UNN         0.0000 
     34 H3         19.3989   40.6638   63.4802 H         1 UNN         0.0000 
     35 H4         23.6939   39.2284   65.2801 H         1 UNN         0.0000 
     36 H5         24.4666   41.4103   66.2220 H         1 UNN         0.0000 
     37 H6         24.5598   43.7601   65.8355 H         1 UNN         0.0000 
     38 H7         26.1321   43.6778   65.0417 H         1 UNN         0.0000 
     39 H8         25.7977   44.4368   67.6745 H         1 UNN         0.0000 
     40 H9         27.3078   43.8134   67.0100 H         1 UNN         0.0000 
     41 H10        25.2080   42.2443   68.3385 H         1 UNN         0.0000 
     42 H11        26.3968   40.3440   68.1787 H         1 UNN         0.0000 
     43 H12        27.8854   41.2030   67.7893 H         1 UNN         0.0000 
     44 H13        26.4029   39.8688   65.8998 H         1 UNN         0.0000 
     45 H14        27.4217   41.2573   65.5149 H         1 UNN         0.0000 
     46 H15        24.6794   46.1896   59.5794 H         1 UNN         0.0000 
     47 H16        25.9293   46.8804   60.5924 H         1 UNN         0.0000 
     48 H17        22.9138   47.2176   60.8281 H         1 UNN         0.0000 
     49 H18        24.0421   48.4231   60.2384 H         1 UNN         0.0000 
     50 H19        26.4337   46.9413   63.1851 H         1 UNN         0.0000 
     51 H20        27.0440   48.4246   63.9053 H         1 UNN         0.0000 
     52 H21        26.8381   48.3333   62.1613 H         1 UNN         0.0000 
     53 H22        21.6570   49.6365   61.2406 H         1 UNN         0.0000 
     54 H23        20.9808   49.9294   62.8508 H         1 UNN         0.0000 
     55 H24        21.0234   48.2773   62.1998 H         1 UNN         0.0000 
     56 H25        24.5807   50.4584   65.9470 H         1 UNN         0.0000 
     57 H26        26.0440   50.4932   64.9513 H         1 UNN         0.0000 
     58 H27        25.6568   49.0527   65.9193 H         1 UNN         0.0000 
@<TRIPOS>BOND
     1    1    2 ar   
     2    6    1 ar   
     3   10   11 1    
     4    3    2 ar   
     5   11   12 1    
     6    4    3 ar   
     7   12   13 1    
     8    5    4 ar   
     9    7    4 ar   
    10    5    6 ar   
    11    9    5 ar   
    12   13   14 1    
    13    8    7 ar   
    14    9    8 ar   
    15    8   17 1    
    16    9   10 1    
    17   14   15 1    
    18   15   16 1    
    19   11   16 1    
    20    1   32 1    
    21    2   33 1    
    22    3   34 1    
    23    6   35 1    
    24   11   36 1    
    25   12   37 1    
    26   12   38 1    
    27   13   39 1    
    28   13   40 1    
    29   14   41 1    
    30   15   42 1    
    31   15   43 1    
    32   16   44 1    
    33   16   45 1    
    34   17   18 ar   
    35   17   21 ar   
    36   18   19 ar   
    37   19   20 ar   
    38   19   22 1    
    39   21   20 ar   
    40   22   23 1    
    41   22   46 1    
    42   22   47 1    
    43   23   24 1    
    44   23   48 1    
    45   23   49 1    
    46   24   25 ar   
    47   24   28 ar   
    48   25   26 ar   
    49   25   30 1    
    50   26   27 ar   
    51   28   27 ar   
    52   27   31 1    
    53   28   29 1    
    54   29   50 1    
    55   29   51 1    
    56   29   52 1    
    57   30   53 1    
    58   30   54 1    
    59   30   55 1    
    60   31   56 1    
    61   31   57 1    
    62   31   58 1    
@<TRIPOS>SUBSTRUCTURE
     1 UNN         1 TEMP              0 ****  ****    0 ROOT 
@<TRIPOS>NORMAL
@<TRIPOS>PROPERTY_DATA
  Total_Score	| 15.2106
 Crash		| -1.9350
  Polar		| 1.6429
  Strain		| 5.9170
  Total		| 9.29359
  Ligmin		| 85.82295
  Full		| 73.52251
  Complex		| 916.02388
  Cscale		| 124.71687
  Pmove		| 0.20532
  Similarity	| -nan
  Total_Score	| 9.8522
  Crash		| -4.4979
  Polar		| 0.7991
  Similarity	| -nan
