@<TRIPOS>MOLECULE
*****
 43  45 0 0 0 
SMALL                                                                       
LOEWDIN                                                                    
                                                                            
@<TRIPOS>ATOM                                                               
      1   C       23.3433 40.2758 63.4229 C.ar 1  UNK   -0.1850 
      2  C1       21.9827 40.4269 63.1357 C.ar 1  UNK   -0.0861 
      3  C2       21.4708 41.6476 62.6929 C.ar 1  UNK   -0.1407 
      4  C3       22.3787 42.6999 62.5514 C.ar 1  UNK    0.0404 
      5  C4       23.7560 42.5801 62.8166 C.ar 1  UNK   -0.1377 
      6  C5       24.2398 41.3404 63.2654 C.ar 1  UNK    0.1295 
      7   O       22.0609 43.9377 62.1577  O.3 1  UNK   -0.0330 
      8  C6       23.1975 44.6667 62.1677  C.2 1  UNK   -0.0914 
      9  C7       24.3251 43.8924 62.5239  C.2 1  UNK   -0.0203 
     10  C8       25.7841 44.3082 62.6076  C.3 1  UNK   -0.1475 
     11  C9       23.0697 46.0836 61.8340  C.2 1  UNK    0.3882 
     12  O1       22.0239 46.6166 61.4562  O.2 1  UNK   -0.3305 
     13  O2       24.2424 46.7231 62.0168  O.3 1  UNK   -0.2631 
     14 C10       24.3352 48.1325 61.8929  C.3 1  UNK   -0.0013 
     15 C15       25.5488 48.6245 62.6929  C.3 1  UNK   -0.2162 
     16 O16       25.5773 41.2309 63.5498  O.3 1  UNK   -0.2279 
     17 C17       25.9545 41.1380 64.9340  C.3 1  UNK    0.0467 
     18 C18       24.9154 41.5538 66.0181  C.3 1  UNK   -0.1762 
     19 C19       25.5177 41.5424 67.4370  C.3 1  UNK   -0.0649 
     20 N20       26.7171 42.3724 67.4929  N.3 1  UNK   -0.3067 
     21 C21       27.7570 41.9030 66.5835  C.3 1  UNK   -0.0669 
     22 C22       27.2566 41.9429 65.1269  C.3 1  UNK   -0.1584 
     23  H1       23.7089 39.3210 63.7712    H 1  UNK    0.1422 
     24  H2       21.3158 39.5877 63.2654    H 1  UNK    0.1392 
     25  H3       20.4239 41.7718 62.4766    H 1  UNK    0.1542 
     26  H4       26.4539 43.4500 62.5887    H 1  UNK    0.0968 
     27  H5       26.0241 44.8919 63.4929    H 1  UNK    0.0949 
     28  H6       26.0701 44.9170 61.7498    H 1  UNK    0.0900 
     29  H7       24.4239 48.3724 60.8344    H 1  UNK    0.0843 
     30  H8       23.4331 48.6218 62.2659    H 1  UNK    0.0903 
     31  H9       25.6239 49.7116 62.6678    H 1  UNK    0.0879 
     32 H10       26.4769 48.2155 62.2929    H 1  UNK    0.0834 
     33 H11       25.4758 48.3272 63.7397    H 1  UNK    0.0858 
     34 H12       26.1724 40.0791 65.0798    H 1  UNK    0.0783 
     35 H13       24.5323 42.5526 65.8020    H 1  UNK    0.1056 
     36 H14       24.0540 40.8862 66.0047    H 1  UNK    0.0881 
     37 H15       25.7661 40.5261 67.7481    H 1  UNK    0.0456 
     38 H16       24.7935 41.9202 68.1598    H 1  UNK    0.0947 
     39 H17       27.0676 42.3981 68.4395    H 1  UNK    0.1560 
     40 H18       28.0560 40.8921 66.8659    H 1  UNK    0.0465 
     41 H19       28.6368 42.5364 66.6993    H 1  UNK    0.0936 
     42 H20       27.0885 42.9783 64.8329    H 1  UNK    0.0997 
     43 H21       28.0385 41.5739 64.4659    H 1  UNK    0.0913 
@<TRIPOS>BOND                                                              
     1      1      2     ar 
     2      1      6     ar 
     3      1     23      1 
     4      2      3     ar 
     5      2     24      1 
     6      3      4     ar 
     7      3     25      1 
     8      4      5     ar 
     9      4      7      1 
    10      5      6     ar 
    11      5      9      1 
    12      6     16      1 
    13      7      8      1 
    14      8      9      2 
    15      8     11      1 
    16      9     10      1 
    17     10     26      1 
    18     10     27      1 
    19     10     28      1 
    20     11     12      2 
    21     11     13      1 
    22     13     14      1 
    23     14     15      1 
    24     14     29      1 
    25     14     30      1 
    26     15     31      1 
    27     15     32      1 
    28     15     33      1 
    29     16     17      1 
    30     17     18      1 
    31     17     22      1 
    32     17     34      1 
    33     18     19      1 
    34     18     35      1 
    35     18     36      1 
    36     19     20      1 
    37     19     37      1 
    38     19     38      1 
    39     20     21      1 
    40     20     39      1 
    41     21     22      1 
    42     21     40      1 
    43     21     41      1 
    44     22     42      1 
    45     22     43      1 
