@<TRIPOS>MOLECULE
*****
 43  45 0 0 0 
SMALL                                                                       
CHELPG                                                                    
                                                                            
@<TRIPOS>ATOM                                                               
      1   C       23.4298 40.9084 63.9836 C.ar 1  UNK    0.0000 
      2  C1       22.2659 40.7506 63.2169 C.ar 1  UNK    0.0000 
      3  C2       21.7759 41.7592 62.3950 C.ar 1  UNK    0.0000 
      4  C3       22.5068 42.9461 62.3748 C.ar 1  UNK    0.0000 
      5  C4       23.6948 43.1541 63.1378 C.ar 1  UNK    0.0000 
      6  C5       24.1588 42.1027 63.9514 C.ar 1  UNK    0.0000 
      7   O       22.2027 44.0773 61.6281  O.3 1  UNK    0.0000 
      8  C6       23.2230 45.0159 61.9311  C.2 1  UNK    0.0000 
      9  C7       24.1362 44.5049 62.8347  C.2 1  UNK    0.0000 
     10  C8       25.3118 45.1632 63.4058  C.3 1  UNK    0.0000 
     11  C9       23.0871 46.2825 61.2314  C.2 1  UNK    0.0000 
     12  O1       22.2183 46.6225 60.4256  O.2 1  UNK    0.0000 
     13  O2       24.0768 47.1810 61.5383  O.3 1  UNK    0.0000 
     14 C10       23.9968 48.4557 60.8712  C.3 1  UNK    0.0000 
     15 C15       25.1731 49.2607 61.3667  C.3 1  UNK    0.0000 
     16 O16       25.3137 42.3586 64.6511  O.3 1  UNK    0.0000 
     17 C17       25.8643 41.2916 65.4455  C.3 1  UNK    0.0000 
     18 C18       25.1568 41.2151 66.7924  C.3 1  UNK    0.0000 
     19 C19       25.8883 40.2476 67.7204  C.3 1  UNK    0.0000 
     20 N20       27.2993 40.5493 67.8576  N.3 1  UNK    0.0000 
     21 C21       27.9985 40.6746 66.5942  C.3 1  UNK    0.0000 
     22 C22       27.3344 41.6598 65.6348  C.3 1  UNK    0.0000 
     23  H1       23.7563 40.0720 64.6171    H 1  UNK    0.0000 
     24  H2       21.7249 39.7926 63.2716    H 1  UNK    0.0000 
     25  H3       20.8669 41.6385 61.7932    H 1  UNK    0.0000 
     26  H4       26.1210 44.4134 63.5965    H 1  UNK    0.0000 
     27  H5       25.0408 45.6380 64.3843    H 1  UNK    0.0000 
     28  H6       25.6950 45.9625 62.7221    H 1  UNK    0.0000 
     29  H7       24.0395 48.2843 59.7639    H 1  UNK    0.0000 
     30  H8       23.0175 48.9359 61.1312    H 1  UNK    0.0000 
     31  H9       25.1621 50.2606 60.8706    H 1  UNK    0.0000 
     32 H10       26.1325 48.7431 61.1267    H 1  UNK    0.0000 
     33 H11       25.1161 49.4000 62.4726    H 1  UNK    0.0000 
     34 H12       25.7840 40.3168 64.8918    H 1  UNK    0.0000 
     35 H13       25.1234 42.2392 67.2475    H 1  UNK    0.0000 
     36 H14       24.1016 40.8664 66.6569    H 1  UNK    0.0000 
     37 H15       25.7144 39.1969 67.3390    H 1  UNK    0.0000 
     38 H16       25.4305 40.3152 68.7477    H 1  UNK    0.0000 
     39 H17       27.7452 39.8577 68.4308    H 1  UNK    0.0000 
     40 H18       28.0968 39.6806 66.0633    H 1  UNK    0.0000 
     41 H19       29.0392 41.0413 66.8226    H 1  UNK    0.0000 
     42 H20       27.4059 42.7046 66.0332    H 1  UNK    0.0000 
     43 H21       27.8637 41.6292 64.6492    H 1  UNK    0.0000 
@<TRIPOS>BOND                                                              
     1      1      2     ar 
     2      1      6     ar 
     3      1     23      1 
     4      2      3     ar 
     5      2     24      1 
     6      3      4     ar 
     7      3     25      1 
     8      4      5     ar 
     9      4      7      1 
    10      5      6     ar 
    11      5      9      1 
    12      6     16      1 
    13      7      8      1 
    14      8      9      2 
    15      8     11      1 
    16      9     10      1 
    17     10     26      1 
    18     10     27      1 
    19     10     28      1 
    20     11     12      2 
    21     11     13      1 
    22     13     14      1 
    23     14     15      1 
    24     14     29      1 
    25     14     30      1 
    26     15     31      1 
    27     15     32      1 
    28     15     33      1 
    29     16     17      1 
    30     17     18      1 
    31     17     22      1 
    32     17     34      1 
    33     18     19      1 
    34     18     35      1 
    35     18     36      1 
    36     19     20      1 
    37     19     37      1 
    38     19     38      1 
    39     20     21      1 
    40     20     39      1 
    41     21     22      1 
    42     21     40      1 
    43     21     41      1 
    44     22     42      1 
    45     22     43      1 
