@<TRIPOS>MOLECULE
*****
 40  42 0 0 0 
SMALL                                                                       
MULLIKEN                                                                    
                                                                            
@<TRIPOS>ATOM                                                               
      1   C       24.7352 41.2182 65.5567 C.ar 1  UNK   -0.2192 
      2  C1       25.1400 40.9253 66.8645 C.ar 1  UNK   -0.1596 
      3  C2       26.4485 41.1442 67.2826 C.ar 1  UNK   -0.1814 
      4  C3       27.3285 41.6642 66.3384 C.ar 1  UNK    0.0350 
      5  C4       26.9555 41.9727 65.0110 C.ar 1  UNK   -0.1437 
      6  C5       25.6266 41.7429 64.6087 C.ar 1  UNK   -0.1170 
      7   O       28.6358 41.9351 66.5616  O.3 1  UNK   -0.0860 
      8  C6       29.1479 42.4087 65.3973  C.2 1  UNK   -0.0678 
      9  C7       28.1723 42.4763 64.3996  C.2 1  UNK    0.0917 
     10  C8       30.5698 42.7560 65.3754  C.2 1  UNK    0.4522 
     11  O1       31.1672 43.1723 64.3789  O.2 1  UNK   -0.3548 
     12  O2       31.1350 42.5578 66.6013  O.3 1  UNK   -0.3007 
     13  C9       32.5007 42.8674 66.8681  C.3 1  UNK   -0.1066 
     14 C10       33.3669 41.6068 66.8860  C.3 1  UNK   -0.3836 
     15  O3       28.3356 42.9129 63.1095  O.3 1  UNK   -0.2141 
     16 C11       27.9388 44.2689 62.8896  C.3 1  UNK   -0.0058 
     17 C12       26.4931 44.3747 62.3548  C.3 1  UNK   -0.3327 
     18 C13       26.1264 45.8204 61.9636  C.3 1  UNK   -0.1571 
     19   N       27.0837 46.3738 61.0095  N.3 1  UNK   -0.3977 
     20 C14       28.4583 46.3589 61.5083  C.3 1  UNK   -0.1601 
     21 C15       28.9067 44.9290 61.8905  C.3 1  UNK   -0.3148 
     22   H       23.7111 41.0339 65.2701    H 1  UNK    0.2030 
     23  H1       24.4241 40.5214 67.5608    H 1  UNK    0.2050 
     24  H2       26.7634 40.9173 68.2916    H 1  UNK    0.2245 
     25  H3       25.2996 41.9554 63.6043    H 1  UNK    0.2135 
     26  H4       32.9041 43.5789 66.1475    H 1  UNK    0.1502 
     27  H5       32.5560 43.3497 67.8444    H 1  UNK    0.1585 
     28  H6       34.3850 41.8433 67.1944    H 1  UNK    0.1326 
     29  H7       33.4246 41.1738 65.8920    H 1  UNK    0.1362 
     30  H8       32.9745 40.8562 67.5716    H 1  UNK    0.1404 
     31  H9       28.0228 44.8255 63.8254    H 1  UNK    0.1437 
     32 H10       26.3715 43.7190 61.4915    H 1  UNK    0.1465 
     33 H11       25.7757 44.0282 63.0932    H 1  UNK    0.1393 
     34 H12       26.0972 46.4575 62.8492    H 1  UNK    0.1505 
     35 H13       25.1313 45.8492 61.5168    H 1  UNK    0.1494 
     36 H14       27.0170 45.8972 60.1200    H 1  UNK    0.2105 
     37 H15       28.5251 47.0275 62.3674    H 1  UNK    0.1499 
     38 H16       29.1167 46.7640 60.7399    H 1  UNK    0.1536 
     39 H17       28.9678 44.3234 60.9857    H 1  UNK    0.1479 
     40 H18       29.9147 44.9580 62.3106    H 1  UNK    0.1685 
@<TRIPOS>BOND                                                              
     1      1      2     ar 
     2      1      6     ar 
     3      1     22      1 
     4      2      3     ar 
     5      2     23      1 
     6      3      4     ar 
     7      3     24      1 
     8      4      5     ar 
     9      4      7      1 
    10      5      6     ar 
    11      5      9      1 
    12      6     25      1 
    13      7      8      1 
    14      8      9      2 
    15      8     10      1 
    16      9     15      1 
    17     10     11      2 
    18     10     12      1 
    19     12     13      1 
    20     13     14      1 
    21     13     26      1 
    22     13     27      1 
    23     14     28      1 
    24     14     29      1 
    25     14     30      1 
    26     15     16      1 
    27     16     17      1 
    28     16     21      1 
    29     16     31      1 
    30     17     18      1 
    31     17     32      1 
    32     17     33      1 
    33     18     19      1 
    34     18     34      1 
    35     18     35      1 
    36     19     20      1 
    37     19     36      1 
    38     20     21      1 
    39     20     37      1 
    40     20     38      1 
    41     21     39      1 
    42     21     40      1 
