@<TRIPOS>MOLECULE
*****
 40  42 0 0 0 
SMALL                                                                       
CHELPG                                                                    
                                                                            
@<TRIPOS>ATOM                                                               
      1   C       24.5727 40.4795 65.6916 C.ar 1  UNK   -2.9918 
      2  C1       25.0672 40.1385 66.9620 C.ar 1  UNK   -2.5346 
      3  C2       26.3230 40.5540 67.3956 C.ar 1  UNK   -8.8565 
      4  C3       27.0630 41.3267 66.5019 C.ar 1  UNK   27.9032 
      5  C4       26.5762 41.6863 65.2101 C.ar 1  UNK  -38.8217 
      6  C5       25.3162 41.2513 64.8040 C.ar 1  UNK   17.4414 
      7   O       28.3321 41.8507 66.7213  O.3 1  UNK  -38.7796 
      8  C6       28.6738 42.5473 65.5328  C.2 1  UNK   53.5535 
      9  C7       27.6394 42.4855 64.6100  C.2 1  UNK  -11.8158 
     10  C8       29.9990 43.1362 65.5271  C.2 1  UNK  -19.2398 
     11  O1       30.5179 43.8105 64.6297  O.2 1  UNK  -17.2617 
     12  O2       30.7110 42.8877 66.6659  O.3 1  UNK   32.3491 
     13  C9       32.0489 43.4077 66.7342  C.3 1  UNK  -157.1518 
     14 C10       33.0131 42.5244 65.9824  C.3 1  UNK  -128.8747 
     15  O3       27.5355 42.9181 63.3297  O.3 1  UNK   30.9560 
     16 C11       27.9866 44.2724 63.0560  C.3 1  UNK  -106.8249 
     17 C12       26.7460 45.0936 62.7250  C.3 1  UNK  -95.1260 
     18 C13       27.1515 46.4476 62.1396  C.3 1  UNK  -86.9771 
     19   N       28.0813 46.3896 61.0298  N.3 1  UNK   55.1461 
     20 C14       29.2420 45.5720 61.3235  C.3 1  UNK  -124.4806 
     21 C15       28.9422 44.1766 61.8730  C.3 1  UNK  -48.1803 
     22   H       23.5741 40.1246 65.3956    H 1  UNK   10.0176 
     23  H1       24.4445 39.5245 67.6313    H 1  UNK    8.4246 
     24  H2       26.7193 40.2905 68.3844    H 1  UNK   10.6510 
     25  H3       24.9315 41.5139 63.8081    H 1  UNK   -5.7562 
     26  H4       32.0694 44.4576 66.3416    H 1  UNK   58.3924 
     27  H5       32.2528 43.3989 67.8393    H 1  UNK   61.8864 
     28  H6       34.0549 42.8933 66.1371    H 1  UNK   61.1716 
     29  H7       32.7793 42.5430 64.8900    H 1  UNK   41.1947 
     30  H8       32.9439 41.4703 66.3432    H 1  UNK   49.7965 
     31  H9       28.5190 44.6994 63.9481    H 1  UNK   45.6197 
     32 H10       26.1112 44.5269 61.9958    H 1  UNK   40.7585 
     33 H11       26.1384 45.2537 63.6508    H 1  UNK   39.4541 
     34 H12       27.6344 47.0619 62.9518    H 1  UNK   40.7090 
     35 H13       26.2254 46.9896 61.8006    H 1  UNK   41.7959 
     36 H14       27.6138 46.0366 60.2132    H 1  UNK    8.4378 
     37 H15       29.8652 46.1294 62.0794    H 1  UNK   41.0679 
     38 H16       29.8505 45.4690 60.3825    H 1  UNK   48.1236 
     39 H17       28.4912 43.5273 61.0798    H 1  UNK   41.3988 
     40 H18       29.8973 43.6992 62.2143    H 1  UNK   27.4237 
@<TRIPOS>BOND                                                              
     1      1      2     ar 
     2      1      6     ar 
     3      1     22      1 
     4      2      3     ar 
     5      2     23      1 
     6      3      4     ar 
     7      3     24      1 
     8      4      5     ar 
     9      4      7      1 
    10      5      6     ar 
    11      5      9      1 
    12      6     25      1 
    13      7      8      1 
    14      8      9      2 
    15      8     10      1 
    16      9     15      1 
    17     10     11      2 
    18     10     12      1 
    19     12     13      1 
    20     13     14      1 
    21     13     26      1 
    22     13     27      1 
    23     14     28      1 
    24     14     29      1 
    25     14     30      1 
    26     15     16      1 
    27     16     17      1 
    28     16     21      1 
    29     16     31      1 
    30     17     18      1 
    31     17     32      1 
    32     17     33      1 
    33     18     19      1 
    34     18     34      1 
    35     18     35      1 
    36     19     20      1 
    37     19     36      1 
    38     20     21      1 
    39     20     37      1 
    40     20     38      1 
    41     21     39      1 
    42     21     40      1 
