@<TRIPOS>MOLECULE
*****
 40  42 0 0 0 
SMALL                                                                       
MULLIKEN                                                                    
                                                                            
@<TRIPOS>ATOM                                                               
      1   C       24.2774 41.0731 64.2334 C.ar 1  UNK   -0.2085 
      2  C1       24.3725 40.6209 65.6003 C.ar 1  UNK   -0.1971 
      3  C2       25.4958 40.8114 66.3261 C.ar 1  UNK   -0.1057 
      4  C3       26.6493 41.4721 65.7824 C.ar 1  UNK   -1.4327 
      5  C4       26.5238 41.9352 64.3604 C.ar 1  UNK   -0.0432 
      6  C5       25.3151 41.7050 63.6351 C.ar 1  UNK   -0.1185 
      7   S       27.9572 41.8135 66.2793  S.3 1  UNK    2.9893 
      8  C6       28.6371 42.4986 65.1669  C.2 1  UNK   -1.4647 
      9  C7       27.7132 42.5281 63.9940  C.2 1  UNK    0.0838 
     10  C8       29.9593 43.0392 65.0943  C.2 1  UNK    0.4642 
     11   O       30.5708 43.6735 64.2396  O.2 1  UNK   -0.3440 
     12  O1       30.6400 42.7737 66.2872  O.3 1  UNK   -0.4355 
     13  C9       31.9959 43.2130 66.3920  C.3 1  UNK   -0.0915 
     14 C10       32.9345 42.2366 65.7254  C.3 1  UNK   -0.3808 
     15  O2       28.0438 42.9377 62.7391  O.3 1  UNK   -0.2171 
     16 C11       28.1369 44.3749 62.5847  C.3 1  UNK    0.0051 
     17 C12       26.7607 44.9353 62.2480  C.3 1  UNK   -0.3362 
     18 C13       26.8758 46.3927 61.8023  C.3 1  UNK   -0.1585 
     19   N       27.8392 46.6438 60.7472  N.3 1  UNK   -0.3986 
     20 C14       29.1394 46.0691 61.0395  C.3 1  UNK   -0.1622 
     21 C15       29.1309 44.5972 61.4504  C.3 1  UNK   -0.3002 
     22   H       23.3359 40.8858 63.6972    H 1  UNK    0.1731 
     23  H1       23.4972 40.1134 66.0306    H 1  UNK    0.1655 
     24  H2       25.5601 40.4607 67.3685    H 1  UNK    0.1350 
     25  H3       25.2740 42.0588 62.5937    H 1  UNK    0.1903 
     26  H4       32.0997 44.2364 65.9441    H 1  UNK    0.1714 
     27  H5       32.1675 43.2578 67.5015    H 1  UNK    0.1348 
     28  H6       33.9893 42.5656 65.8812    H 1  UNK    0.1394 
     29  H7       32.7244 42.1956 64.6284    H 1  UNK    0.1459 
     30  H8       32.8084 41.2125 66.1502    H 1  UNK    0.1160 
     31  H9       28.5309 44.8327 63.5323    H 1  UNK    0.1249 
     32 H10       26.2977 44.3138 61.4384    H 1  UNK    0.1386 
     33 H11       26.0954 44.8670 63.1454    H 1  UNK    0.1466 
     34 H12       27.1784 47.0189 62.6889    H 1  UNK    0.1421 
     35 H13       25.8681 46.7524 61.4540    H 1  UNK    0.1419 
     36 H14       27.4933 46.2673 59.8816    H 1  UNK    0.2077 
     37 H15       29.5940 46.6744 61.8742    H 1  UNK    0.1436 
     38 H16       29.7913 46.1915 60.1304    H 1  UNK    0.1433 
     39 H17       28.8576 43.9459 60.5814    H 1  UNK    0.1410 
     40 H18       30.1512 44.2943 61.8019    H 1  UNK    0.1513 
@<TRIPOS>BOND                                                              
     1      1      2     ar 
     2      1      6     ar 
     3      1     22      1 
     4      2      3     ar 
     5      2     23      1 
     6      3      4     ar 
     7      3     24      1 
     8      4      5     ar 
     9      4      7      1 
    10      5      6     ar 
    11      5      9      1 
    12      6     25      1 
    13      7      8      1 
    14      8      9      2 
    15      8     10      1 
    16      9     15      1 
    17     10     11      2 
    18     10     12      1 
    19     12     13      1 
    20     13     14      1 
    21     13     26      1 
    22     13     27      1 
    23     14     28      1 
    24     14     29      1 
    25     14     30      1 
    26     15     16      1 
    27     16     17      1 
    28     16     21      1 
    29     16     31      1 
    30     17     18      1 
    31     17     32      1 
    32     17     33      1 
    33     18     19      1 
    34     18     34      1 
    35     18     35      1 
    36     19     20      1 
    37     19     36      1 
    38     20     21      1 
    39     20     37      1 
    40     20     38      1 
    41     21     39      1 
    42     21     40      1 
