@<TRIPOS>MOLECULE
*****
 40  42 0 0 0 
SMALL                                                                       
MULLIKEN                                                                    
                                                                            
@<TRIPOS>ATOM                                                               
      1   C       24.4775 41.3853 63.9680 C.ar 1  UNK   -0.2086 
      2  C1       24.4234 40.9997 65.2982 C.ar 1  UNK   -0.1969 
      3  C2       25.5225 41.1165 66.1314 C.ar 1  UNK   -0.1058 
      4  C3       26.7024 41.6384 65.5899 C.ar 1  UNK   -1.4326 
      5  C4       26.7925 42.0563 64.2039 C.ar 1  UNK   -0.0433 
      6  C5       25.6370 41.9120 63.3991 C.ar 1  UNK   -0.1183 
      7   S       28.2260 41.8886 66.3820  S.3 1  UNK    2.9894 
      8  C6       29.0001 42.4809 64.9558  C.2 1  UNK   -1.4648 
      9  C7       28.1211 42.5606 63.8788  C.2 1  UNK    0.0839 
     10  C8       30.4340 42.8242 65.0002  C.2 1  UNK    0.4642 
     11   O       31.0748 43.2402 64.0329  O.2 1  UNK   -0.3440 
     12  O1       30.9510 42.6227 66.2481  O.3 1  UNK   -0.4355 
     13  C9       32.2984 42.9592 66.5844  C.3 1  UNK   -0.0915 
     14 C10       33.1396 41.7068 66.8265  C.3 1  UNK   -0.3808 
     15  O2       28.4458 43.0143 62.6163  O.3 1  UNK   -0.2171 
     16 C11       28.2079 44.4120 62.3609  C.3 1  UNK    0.0051 
     17 C12       26.7276 44.8474 62.4737  C.3 1  UNK   -0.3362 
     18 C13       26.4962 46.3084 62.0554  C.3 1  UNK   -0.1586 
     19   N       26.9703 46.5171 60.6935  N.3 1  UNK   -0.3986 
     20 C14       28.4038 46.2664 60.5745  C.3 1  UNK   -0.1622 
     21 C15       28.7765 44.8236 60.9842  C.3 1  UNK   -0.3002 
     22   H       23.5962 41.2734 63.3535    H 1  UNK    0.1731 
     23  H1       23.5021 40.5975 65.6941    H 1  UNK    0.1655 
     24  H2       25.4671 40.8095 67.1662    H 1  UNK    0.1350 
     25  H3       25.6469 42.1945 62.3587    H 1  UNK    0.1903 
     26  H4       32.7759 43.5725 65.8187    H 1  UNK    0.1714 
     27  H5       32.2770 43.5648 67.4931    H 1  UNK    0.1349 
     28  H6       34.1201 41.9702 67.2236    H 1  UNK    0.1395 
     29  H7       33.2986 41.1724 65.8930    H 1  UNK    0.1459 
     30  H8       32.6595 41.0342 67.5379    H 1  UNK    0.1160 
     31  H9       28.7917 44.9607 63.0929    H 1  UNK    0.1249 
     32 H10       26.1093 44.2164 61.8370    H 1  UNK    0.1386 
     33 H11       26.3775 44.7159 63.4928    H 1  UNK    0.1466 
     34 H12       27.0083 46.9951 62.7316    H 1  UNK    0.1422 
     35 H13       25.4332 46.5474 62.0991    H 1  UNK    0.1419 
     36 H14       26.4493 45.9468 60.0411    H 1  UNK    0.2077 
     37 H15       28.9375 46.9865 61.1955    H 1  UNK    0.1436 
     38 H16       28.7081 46.4539 59.5441    H 1  UNK    0.1433 
     39 H17       28.4316 44.1249 60.2208    H 1  UNK    0.1410 
     40 H18       29.8647 44.7724 61.0002    H 1  UNK    0.1513 
@<TRIPOS>BOND                                                              
     1      1      2     ar 
     2      1      6     ar 
     3      1     22      1 
     4      2      3     ar 
     5      2     23      1 
     6      3      4     ar 
     7      3     24      1 
     8      4      5     ar 
     9      4      7      1 
    10      5      6     ar 
    11      5      9      1 
    12      6     25      1 
    13      7      8      1 
    14      8      9      2 
    15      8     10      1 
    16      9     15      1 
    17     10     11      2 
    18     10     12      1 
    19     12     13      1 
    20     13     14      1 
    21     13     26      1 
    22     13     27      1 
    23     14     28      1 
    24     14     29      1 
    25     14     30      1 
    26     15     16      1 
    27     16     17      1 
    28     16     21      1 
    29     16     31      1 
    30     17     18      1 
    31     17     32      1 
    32     17     33      1 
    33     18     19      1 
    34     18     34      1 
    35     18     35      1 
    36     19     20      1 
    37     19     36      1 
    38     20     21      1 
    39     20     37      1 
    40     20     38      1 
    41     21     39      1 
    42     21     40      1 
