@<TRIPOS>MOLECULE
*****
 47  50 0 0 0 
SMALL                                                                       
CHELPG                                                                    
                                                                            
@<TRIPOS>ATOM                                                               
      1   C       22.4121 39.0062 63.2120 C.ar 1  UNK  -29.6524 
      2  C1       21.3156 39.4991 62.4142 C.ar 1  UNK   15.6176 
      3  C2       21.3273 40.7485 61.9003 C.ar 1  UNK   13.7466 
      4  C3       22.4236 41.6500 62.1189 C.ar 1  UNK  -55.1332 
      5  C4       23.5497 41.1144 62.9538 C.ar 1  UNK  -43.0099 
      6  C5       23.4899 39.7842 63.4710 C.ar 1  UNK   44.5497 
      7   S       22.7304 42.9982 61.7153  S.3 1  UNK   71.1998 
      8  C6       24.0424 43.3011 62.3133  C.2 1  UNK  -39.9417 
      9  C7       24.5162 42.0922 63.0517  C.2 1  UNK   60.8050 
     10  C8       24.8347 44.4884 62.2335  C.2 1  UNK   22.7881 
     11   O       25.8488 44.8722 62.8096  O.2 1  UNK  -12.6328 
     12  O1       24.2698 45.3600 61.2965  O.3 1  UNK  -52.9712 
     13  C9       24.8664 46.6454 61.1140  C.3 1  UNK   22.0602 
     14 C10       24.1985 47.6736 61.9686 C.ar 1  UNK  -84.3346 
     15  O2       25.7556 41.9394 63.5926  O.3 1  UNK    6.3615 
     16 C11       25.9450 42.6273 64.8527  C.3 1  UNK  -114.2311 
     17 C12       27.4405 42.9032 64.9461  C.3 1  UNK   -5.4149 
     18 C13       27.7893 43.4631 66.3225  C.3 1  UNK  -155.1790 
     19   N       27.3018 42.6506 67.4207  N.3 1  UNK   51.9576 
     20 C14       25.8896 42.3324 67.3381  C.3 1  UNK  -99.8692 
     21 C15       25.4844 41.7319 65.9947  C.3 1  UNK   -1.0542 
     22 C16       24.4888 47.7411 63.3363 C.ar 1  UNK   42.2126 
     23 C17       23.8882 48.7155 64.1313 C.ar 1  UNK    9.5420 
     24 C18       22.9973 49.6285 63.5659 C.ar 1  UNK   -8.5153 
     25 C19       22.7068 49.5649 62.2033 C.ar 1  UNK   -3.6085 
     26 C20       23.3038 48.5889 61.4059 C.ar 1  UNK   26.1137 
     27   H       22.3414 37.9797 63.5995    H 1  UNK   17.4996 
     28  H1       20.4690 38.8202 62.2378    H 1  UNK    7.2286 
     29  H2       20.4860 41.1157 61.2913    H 1  UNK   -3.4282 
     30  H3       24.3427 39.4368 64.0740    H 1  UNK  -17.5644 
     31  H4       25.9660 46.5997 61.3397    H 1  UNK   18.5824 
     32  H5       24.7060 46.8576 60.0212    H 1  UNK   16.5042 
     33  H6       25.3732 43.5944 64.8441    H 1  UNK   30.7739 
     34  H7       28.0068 41.9567 64.7521    H 1  UNK   32.5874 
     35  H8       27.7239 43.6492 64.1592    H 1  UNK   19.5065 
     36  H9       27.3983 44.5230 66.3780    H 1  UNK   39.6106 
     37 H10       28.9109 43.5114 66.4186    H 1  UNK   59.3568 
     38 H11       27.4952 43.1077 68.2924    H 1  UNK   13.7256 
     39 H12       25.2408 43.2399 67.5260    H 1  UNK   33.6874 
     40 H13       25.6685 41.5856 68.1523    H 1  UNK   42.0710 
     41 H14       25.9386 40.7146 65.8708    H 1  UNK   16.4212 
     42 H15       24.3715 41.6143 65.9638    H 1  UNK   -1.5266 
     43 H16       25.1964 47.0151 63.7717    H 1  UNK  -25.8833 
     44 H17       24.1208 48.7660 65.2052    H 1  UNK   -2.6220 
     45 H18       22.5269 50.3996 64.1934    H 1  UNK   12.9087 
     46 H19       22.0079 50.2863 61.7554    H 1  UNK   11.8208 
     47 H20       23.0748 48.5438 60.3308    H 1  UNK   -2.6664 
@<TRIPOS>BOND                                                              
     1      1      2     ar 
     2      1      6     ar 
     3      1     27      1 
     4      2      3     ar 
     5      2     28      1 
     6      3      4     ar 
     7      3     29      1 
     8      4      5     ar 
     9      4      7      1 
    10      5      6     ar 
    11      5      9      1 
    12      6     30      1 
    13      7      8      1 
    14      8      9      2 
    15      8     10      1 
    16      9     15      1 
    17     10     11      2 
    18     10     12      1 
    19     12     13      1 
    20     13     14      1 
    21     13     31      1 
    22     13     32      1 
    23     14     22     ar 
    24     14     26     ar 
    25     15     16      1 
    26     16     17      1 
    27     16     21      1 
    28     16     33      1 
    29     17     18      1 
    30     17     34      1 
    31     17     35      1 
    32     18     19      1 
    33     18     36      1 
    34     18     37      1 
    35     19     20      1 
    36     19     38      1 
    37     20     21      1 
    38     20     39      1 
    39     20     40      1 
    40     21     41      1 
    41     21     42      1 
    42     22     23     ar 
    43     22     43      1 
    44     23     24     ar 
    45     23     44      1 
    46     24     25     ar 
    47     24     45      1 
    48     25     26     ar 
    49     25     46      1 
    50     26     47      1 
