@<TRIPOS>MOLECULE
*****
 51  54 0 0 0 
SMALL                                                                       
MULLIKEN                                                                    
                                                                            
@<TRIPOS>ATOM                                                               
      1   C       21.2294 41.5723 62.6929 C.ar 1  UNK   -0.2254 
      2  C1       21.7129 40.3794 63.1922 C.ar 1  UNK   -0.1838 
      3  C2       23.0523 40.2102 63.4901 C.ar 1  UNK   -0.1172 
      4  C3       23.9174 41.2869 63.2651 C.ar 1  UNK   -1.4260 
      5  C4       23.4464 42.5646 62.7535 C.ar 1  UNK   -0.1236 
      6  C5       22.0539 42.6723 62.4710 C.ar 1  UNK   -0.1083 
      7   S       25.6238 41.3439 63.5244  S.3 1  UNK    2.9684 
      8  C6       25.7792 42.9843 63.0169  C.2 1  UNK   -1.4904 
      9  C7       24.5592 43.5366 62.6317  C.2 1  UNK    0.1492 
     10  C8       27.1163 43.6311 63.0275  C.2 1  UNK    0.4758 
     11   O       27.3185 44.7966 62.6930  O.2 1  UNK   -0.2781 
     12  O1       28.0911 42.7724 63.4341  O.3 1  UNK   -0.4066 
     13  C9       28.3282 42.5147 64.8219  C.3 1  UNK   -0.0247 
     14 C10       29.8099 42.5434 65.1927 C.ar 1  UNK   -0.0876 
     15  O2       24.4181 44.8469 62.1911  O.3 1  UNK   -0.2424 
     16 C11       23.2869 45.3275 61.4653  C.3 1  UNK    0.0108 
     17 C12       23.7028 46.3723 60.4084  C.3 1  UNK   -0.2547 
     18 C13       23.9701 47.7836 60.9692  C.3 1  UNK   -0.1577 
     19   N       22.9018 48.2504 61.8487  N.3 1  UNK   -0.3967 
     20 C14       22.6867 47.3373 62.9650  C.3 1  UNK   -0.1554 
     21 C15       22.2587 45.9500 62.4492  C.3 1  UNK   -0.2732 
     22 C16       30.7460 43.1557 64.3475 C.ar 1  UNK   -0.1709 
     23 C17       32.0998 43.1724 64.6929 C.ar 1  UNK    0.1013 
     24 C18       32.5171 42.5785 65.8978 C.ar 1  UNK   -0.2631 
     25 C19       31.5829 41.9725 66.7366 C.ar 1  UNK   -0.1514 
     26 C20       30.2340 41.9537 66.3854 C.ar 1  UNK   -0.2224 
     27  O3       33.0064 43.7730 63.8362  O.3 1  UNK   -0.2574 
     28 C21       34.3594 43.9731 64.2358  C.3 1  UNK   -0.1938 
     29   H       20.1818 41.6552 62.4635    H 1  UNK    0.1708 
     30  H1       21.0283 39.5633 63.3516    H 1  UNK    0.1633 
     31  H2       23.4172 39.2695 63.8758    H 1  UNK    0.1329 
     32  H3       21.6245 43.5735 62.0920    H 1  UNK    0.1794 
     33  H4       27.7748 43.1724 65.4817    H 1  UNK    0.1561 
     34  H5       27.9473 41.5269 65.0617    H 1  UNK    0.0583 
     35  H6       22.8959 44.5074 60.8679    H 1  UNK    0.1406 
     36  H7       24.5818 46.0218 59.8673    H 1  UNK    0.1484 
     37  H8       22.9101 46.4463 59.6617    H 1  UNK    0.1399 
     38  H9       24.0239 48.4820 60.1351    H 1  UNK    0.1311 
     39 H10       24.9227 47.8196 61.4999    H 1  UNK    0.1164 
     40 H11       23.1285 49.1712 62.1968    H 1  UNK    0.2004 
     41 H12       21.9164 47.7525 63.6157    H 1  UNK    0.1325 
     42 H13       23.5990 47.2669 63.5597    H 1  UNK    0.1118 
     43 H14       22.1075 45.3041 63.3137    H 1  UNK    0.1475 
     44 H15       21.2870 46.0330 61.9606    H 1  UNK    0.1418 
     45 H16       30.4240 43.6137 63.4237    H 1  UNK    0.2477 
     46 H17       33.5586 42.5838 66.1785    H 1  UNK    0.2037 
     47 H18       31.9051 41.5148 67.6605    H 1  UNK    0.2012 
     48 H19       29.5153 41.4812 67.0396    H 1  UNK    0.1854 
     49 H20       34.8851 44.5231 63.4554    H 1  UNK    0.1669 
     50 H21       34.8831 43.0270 64.3774    H 1  UNK    0.1124 
     51 H22       34.4232 44.5616 65.1526    H 1  UNK    0.1169 
@<TRIPOS>BOND                                                              
     1      1      2     ar 
     2      1      6     ar 
     3      1     29      1 
     4      2      3     ar 
     5      2     30      1 
     6      3      4     ar 
     7      3     31      1 
     8      4      5     ar 
     9      4      7      1 
    10      5      6     ar 
    11      5      9      1 
    12      6     32      1 
    13      7      8      1 
    14      8      9      2 
    15      8     10      1 
    16      9     15      1 
    17     10     11      2 
    18     10     12      1 
    19     12     13      1 
    20     13     14      1 
    21     13     33      1 
    22     13     34      1 
    23     14     22     ar 
    24     14     26     ar 
    25     15     16      1 
    26     16     17      1 
    27     16     21      1 
    28     16     35      1 
    29     17     18      1 
    30     17     36      1 
    31     17     37      1 
    32     18     19      1 
    33     18     38      1 
    34     18     39      1 
    35     19     20      1 
    36     19     40      1 
    37     20     21      1 
    38     20     41      1 
    39     20     42      1 
    40     21     43      1 
    41     21     44      1 
    42     22     23     ar 
    43     22     45      1 
    44     23     24     ar 
    45     23     27      1 
    46     24     25     ar 
    47     24     46      1 
    48     25     26     ar 
    49     25     47      1 
    50     26     48      1 
    51     27     28      1 
    52     28     49      1 
    53     28     50      1 
    54     28     51      1 
