@<TRIPOS>MOLECULE
*****
 47  50 0 0 0 
SMALL                                                                       
LOEWDIN                                                                    
                                                                            
@<TRIPOS>ATOM                                                               
      1   C       22.4121 39.0062 63.2120 C.ar 1  UNK   -0.1509 
      2  C1       21.3156 39.4991 62.4142 C.ar 1  UNK   -0.1433 
      3  C2       21.3273 40.7485 61.9003 C.ar 1  UNK   -0.0703 
      4  C3       22.4236 41.6500 62.1189 C.ar 1  UNK   -1.2334 
      5  C4       23.5497 41.1144 62.9538 C.ar 1  UNK   -0.0582 
      6  C5       23.4899 39.7842 63.4710 C.ar 1  UNK   -0.0645 
      7   S       22.7304 42.9982 61.7153  S.3 1  UNK    2.6638 
      8  C6       24.0424 43.3011 62.3133  C.2 1  UNK   -1.2660 
      9  C7       24.5162 42.0922 63.0517  C.2 1  UNK    0.0397 
     10  C8       24.8347 44.4884 62.2335  C.2 1  UNK    0.4075 
     11   O       25.8488 44.8722 62.8096  O.2 1  UNK   -0.3148 
     12  O1       24.2698 45.3600 61.2965  O.3 1  UNK   -0.3802 
     13  C9       24.8664 46.6454 61.1140  C.3 1  UNK    0.0568 
     14 C10       24.1985 47.6736 61.9686 C.ar 1  UNK   -0.1248 
     15  O2       25.7556 41.9394 63.5926  O.3 1  UNK   -0.1743 
     16 C11       25.9450 42.6273 64.8527  C.3 1  UNK    0.0491 
     17 C12       27.4405 42.9032 64.9461  C.3 1  UNK   -0.1503 
     18 C13       27.7893 43.4631 66.3225  C.3 1  UNK   -0.0667 
     19   N       27.3018 42.6506 67.4207  N.3 1  UNK   -0.3015 
     20 C14       25.8896 42.3324 67.3381  C.3 1  UNK   -0.0689 
     21 C15       25.4844 41.7319 65.9947  C.3 1  UNK   -0.1780 
     22 C16       24.4888 47.7411 63.3363 C.ar 1  UNK   -0.1234 
     23 C17       23.8882 48.7155 64.1313 C.ar 1  UNK   -0.1309 
     24 C18       22.9973 49.6285 63.5659 C.ar 1  UNK   -0.1230 
     25 C19       22.7068 49.5649 62.2033 C.ar 1  UNK   -0.1375 
     26 C20       23.3038 48.5889 61.4059 C.ar 1  UNK   -0.1257 
     27   H       22.3414 37.9797 63.5995    H 1  UNK    0.1117 
     28  H1       20.4690 38.8202 62.2378    H 1  UNK    0.1065 
     29  H2       20.4860 41.1157 61.2913    H 1  UNK    0.0819 
     30  H3       24.3427 39.4368 64.0740    H 1  UNK    0.1305 
     31  H4       25.9660 46.5997 61.3397    H 1  UNK    0.1057 
     32  H5       24.7060 46.8576 60.0212    H 1  UNK    0.1042 
     33  H6       25.3732 43.5944 64.8441    H 1  UNK    0.0603 
     34  H7       28.0068 41.9567 64.7521    H 1  UNK    0.0976 
     35  H8       27.7239 43.6492 64.1592    H 1  UNK    0.0979 
     36  H9       27.3983 44.5230 66.3780    H 1  UNK    0.0379 
     37 H10       28.9109 43.5114 66.4186    H 1  UNK    0.0850 
     38 H11       27.4952 43.1077 68.2924    H 1  UNK    0.1421 
     39 H12       25.2408 43.2399 67.5260    H 1  UNK    0.0383 
     40 H13       25.6685 41.5856 68.1523    H 1  UNK    0.0842 
     41 H14       25.9386 40.7146 65.8708    H 1  UNK    0.1002 
     42 H15       24.3715 41.6143 65.9638    H 1  UNK    0.0863 
     43 H16       25.1964 47.0151 63.7717    H 1  UNK    0.1428 
     44 H17       24.1208 48.7660 65.2052    H 1  UNK    0.1404 
     45 H18       22.5269 50.3996 64.1934    H 1  UNK    0.1384 
     46 H19       22.0079 50.2863 61.7554    H 1  UNK    0.1381 
     47 H20       23.0748 48.5438 60.3308    H 1  UNK    0.1398 
@<TRIPOS>BOND                                                              
     1      1      2     ar 
     2      1      6     ar 
     3      1     27      1 
     4      2      3     ar 
     5      2     28      1 
     6      3      4     ar 
     7      3     29      1 
     8      4      5     ar 
     9      4      7      1 
    10      5      6     ar 
    11      5      9      1 
    12      6     30      1 
    13      7      8      1 
    14      8      9      2 
    15      8     10      1 
    16      9     15      1 
    17     10     11      2 
    18     10     12      1 
    19     12     13      1 
    20     13     14      1 
    21     13     31      1 
    22     13     32      1 
    23     14     22     ar 
    24     14     26     ar 
    25     15     16      1 
    26     16     17      1 
    27     16     21      1 
    28     16     33      1 
    29     17     18      1 
    30     17     34      1 
    31     17     35      1 
    32     18     19      1 
    33     18     36      1 
    34     18     37      1 
    35     19     20      1 
    36     19     38      1 
    37     20     21      1 
    38     20     39      1 
    39     20     40      1 
    40     21     41      1 
    41     21     42      1 
    42     22     23     ar 
    43     22     43      1 
    44     23     24     ar 
    45     23     44      1 
    46     24     25     ar 
    47     24     45      1 
    48     25     26     ar 
    49     25     46      1 
    50     26     47      1 
