@<TRIPOS>MOLECULE
*****
 47  50 0 0 0 
SMALL                                                                       
CHELPG                                                                    
                                                                            
@<TRIPOS>ATOM                                                               
      1   C       22.1450 39.9724 63.5810 C.ar 1  UNK  -88.1706 
      2  C1       21.0657 40.7184 63.1478 C.ar 1  UNK   43.7083 
      3  C2       21.2238 42.0110 62.6912 C.ar 1  UNK  -35.3008 
      4  C3       22.5135 42.5448 62.6673 C.ar 1  UNK   47.6163 
      5  C4       23.6637 41.7898 63.1148 C.ar 1  UNK  -63.9546 
      6  C5       23.4436 40.4702 63.5644 C.ar 1  UNK   96.6775 
      7   S       23.0050 44.1130 62.1352  S.3 1  UNK  -41.4195 
      8  C6       24.6694 43.8382 62.5139  C.2 1  UNK    5.3575 
      9  C7       24.8840 42.5705 63.0308  C.2 1  UNK   52.9109 
     10  C8       25.6406 44.9211 62.2910  C.2 1  UNK  -13.8437 
     11   O       26.8208 44.8855 62.6428  O.2 1  UNK   19.2639 
     12  O1       25.0583 45.9465 61.6443  O.3 1  UNK   26.6188 
     13  C9       25.3721 47.3084 61.8462  C.3 1  UNK  -193.4453 
     14 C10       24.0170 47.9854 61.9681 C.ar 1  UNK   59.7287 
     15  O2       26.0990 42.0750 63.4326  O.3 1  UNK    1.9779 
     16 C11       26.3541 42.2358 64.8349  C.3 1  UNK  -130.5155 
     17 C12       27.8692 42.3704 65.0775  C.3 1  UNK    9.5805 
     18 C13       28.2263 42.3356 66.5778  C.3 1  UNK  -191.9569 
     19   N       27.6242 41.1726 67.2226  N.3 1  UNK   55.9288 
     20 C14       26.1729 41.2029 67.1739  C.3 1  UNK  -148.9446 
     21 C15       25.7219 41.1295 65.7118  C.3 1  UNK   82.3823 
     22 C16       23.5478 48.3904 63.2183 C.ar 1  UNK   10.6324 
     23 C17       22.2933 48.9837 63.3287 C.ar 1  UNK   -6.3484 
     24 C18       21.5090 49.1724 62.1930 C.ar 1  UNK  -40.9288 
     25 C19       21.9768 48.7733 60.9431 C.ar 1  UNK    4.0468 
     26 C20       23.2291 48.1798 60.8289 C.ar 1  UNK  -24.2844 
     27   H       21.9753 38.9751 63.9445    H 1  UNK   29.7935 
     28  H1       20.0769 40.2839 63.1758    H 1  UNK    8.0038 
     29  H2       20.3756 42.5860 62.3541    H 1  UNK    5.7022 
     30  H3       24.2611 39.8564 63.9056    H 1  UNK  -30.5981 
     31  H4       25.9773 47.4729 62.7404    H 1  UNK   44.9298 
     32  H5       25.9182 47.6999 60.9878    H 1  UNK   70.4702 
     33  H6       25.9255 43.1723 65.1684    H 1  UNK   21.8283 
     34  H7       28.3994 41.5724 64.5666    H 1  UNK   34.4447 
     35  H8       28.2410 43.2921 64.6290    H 1  UNK    7.8010 
     36  H9       27.8882 43.2368 67.0914    H 1  UNK   56.5676 
     37 H10       29.3078 42.2891 66.7064    H 1  UNK   69.8587 
     38 H11       27.9228 41.1217 68.1852    H 1  UNK   18.8137 
     39 H12       25.8023 42.1065 67.6624    H 1  UNK   49.8952 
     40 H13       25.7814 40.3546 67.7375    H 1  UNK   47.1187 
     41 H14       25.9727 40.1475 65.3099    H 1  UNK    4.1049 
     42 H15       24.6382 41.2202 65.7131    H 1  UNK  -34.4307 
     43 H16       24.1528 48.2378 64.1007    H 1  UNK   -9.0535 
     44 H17       21.9266 49.2956 64.2929    H 1  UNK   16.1215 
     45 H18       20.5359 49.6337 62.2820    H 1  UNK   25.8601 
     46 H19       21.3673 48.9227 60.0641    H 1  UNK   16.9367 
     47 H20       23.5894 47.8640 59.8601    H 1  UNK    8.5145 
@<TRIPOS>BOND                                                              
     1      1      2     ar 
     2      1      6     ar 
     3      1     27      1 
     4      2      3     ar 
     5      2     28      1 
     6      3      4     ar 
     7      3     29      1 
     8      4      5     ar 
     9      4      7      1 
    10      5      6     ar 
    11      5      9      1 
    12      6     30      1 
    13      7      8      1 
    14      8      9      2 
    15      8     10      1 
    16      9     15      1 
    17     10     11      2 
    18     10     12      1 
    19     12     13      1 
    20     13     14      1 
    21     13     31      1 
    22     13     32      1 
    23     14     22     ar 
    24     14     26     ar 
    25     15     16      1 
    26     16     17      1 
    27     16     21      1 
    28     16     33      1 
    29     17     18      1 
    30     17     34      1 
    31     17     35      1 
    32     18     19      1 
    33     18     36      1 
    34     18     37      1 
    35     19     20      1 
    36     19     38      1 
    37     20     21      1 
    38     20     39      1 
    39     20     40      1 
    40     21     41      1 
    41     21     42      1 
    42     22     23     ar 
    43     22     43      1 
    44     23     24     ar 
    45     23     44      1 
    46     24     25     ar 
    47     24     45      1 
    48     25     26     ar 
    49     25     46      1 
    50     26     47      1 
