@<TRIPOS>MOLECULE
*****
 51  54 0 0 0 
SMALL                                                                       
CHELPG                                                                    
                                                                            
@<TRIPOS>ATOM                                                               
      1   C       22.1117 40.7143 61.7103 C.ar 1  UNK    0.0000 
      2  C1       23.1188 39.6868 61.8187 C.ar 1  UNK    0.0000 
      3  C2       24.3566 39.9645 62.2833 C.ar 1  UNK    0.0000 
      4  C3       24.7369 41.2876 62.6912 C.ar 1  UNK    0.0000 
      5  C4       23.6749 42.3399 62.5609 C.ar 1  UNK    0.0000 
      6  C5       22.3805 41.9927 62.0669 C.ar 1  UNK    0.0000 
      7   S       25.9346 41.8841 63.2262  S.3 1  UNK    0.0000 
      8  C6       25.6199 43.3151 63.3915  C.2 1  UNK    0.0000 
      9  C7       24.2053 43.5420 62.9800  C.2 1  UNK    0.0000 
     10  C8       26.4386 44.3820 63.8766  C.2 1  UNK    0.0000 
     11   O       26.2929 45.5925 64.0044  O.2 1  UNK    0.0000 
     12  O1       27.6816 43.8628 64.2637  O.3 1  UNK    0.0000 
     13  C9       28.6194 44.7936 64.8171  C.3 1  UNK    0.0000 
     14 C10       29.8840 44.0492 65.0963 C.ar 1  UNK    0.0000 
     15  O2       23.5608 44.7290 63.1478  O.3 1  UNK    0.0000 
     16 C11       23.1801 45.3779 61.9055  C.3 1  UNK    0.0000 
     17 C12       24.2013 46.4521 61.5611  C.3 1  UNK    0.0000 
     18 C13       24.1600 47.6135 62.5510  C.3 1  UNK    0.0000 
     19   N       22.8260 48.1543 62.7488  N.3 1  UNK    0.0000 
     20 C14       21.8487 47.1466 63.1179  C.3 1  UNK    0.0000 
     21 C15       21.7986 45.9781 62.1374  C.3 1  UNK    0.0000 
     22 C16       30.4077 43.1695 64.1506 C.ar 1  UNK    0.0000 
     23 C17       31.6128 42.4983 64.4252 C.ar 1  UNK    0.0000 
     24 C18       32.2954 42.7149 65.6275 C.ar 1  UNK    0.0000 
     25 C19       31.7586 43.6044 66.5588 C.ar 1  UNK    0.0000 
     26 C20       30.5599 44.2649 66.3045 C.ar 1  UNK    0.0000 
     27  O3       32.0277 41.6283 63.4337  O.3 1  UNK    0.0000 
     28 C21       33.3080 41.0348 63.6178  C.3 1  UNK    0.0000 
     29   H       21.1220 40.4220 61.3309    H 1  UNK    0.0000 
     30  H1       22.8424 38.6685 61.5101    H 1  UNK    0.0000 
     31  H2       25.1194 39.1734 62.3626    H 1  UNK    0.0000 
     32  H3       21.6308 42.7960 61.9994    H 1  UNK    0.0000 
     33  H4       28.7970 45.6167 64.0726    H 1  UNK    0.0000 
     34  H5       28.1774 45.2337 65.7504    H 1  UNK    0.0000 
     35  H6       23.1284 44.6135 61.0822    H 1  UNK    0.0000 
     36  H7       25.2307 46.0095 61.5944    H 1  UNK    0.0000 
     37  H8       23.9967 46.8173 60.5225    H 1  UNK    0.0000 
     38  H9       24.8024 48.4501 62.1566    H 1  UNK    0.0000 
     39 H10       24.6192 47.2455 63.5177    H 1  UNK    0.0000 
     40 H11       22.8589 48.8593 63.4630    H 1  UNK    0.0000 
     41 H12       20.8405 47.6484 63.1401    H 1  UNK    0.0000 
     42 H13       22.0473 46.7208 64.1464    H 1  UNK    0.0000 
     43 H14       21.1126 45.1946 62.5495    H 1  UNK    0.0000 
     44 H15       21.3973 46.3198 61.1487    H 1  UNK    0.0000 
     45 H16       29.8927 43.0002 63.1952    H 1  UNK    0.0000 
     46 H17       33.2406 42.1992 65.8448    H 1  UNK    0.0000 
     47 H18       32.2905 43.7812 67.5060    H 1  UNK    0.0000 
     48 H19       30.1437 44.9588 67.0497    H 1  UNK    0.0000 
     49 H20       33.4569 40.4408 62.6806    H 1  UNK    0.0000 
     50 H21       33.3039 40.3651 64.5120    H 1  UNK    0.0000 
     51 H22       34.0979 41.8179 63.7186    H 1  UNK    0.0000 
@<TRIPOS>BOND                                                              
     1      1      2     ar 
     2      1      6     ar 
     3      1     29      1 
     4      2      3     ar 
     5      2     30      1 
     6      3      4     ar 
     7      3     31      1 
     8      4      5     ar 
     9      4      7      1 
    10      5      6     ar 
    11      5      9      1 
    12      6     32      1 
    13      7      8      1 
    14      8      9      2 
    15      8     10      1 
    16      9     15      1 
    17     10     11      2 
    18     10     12      1 
    19     12     13      1 
    20     13     14      1 
    21     13     33      1 
    22     13     34      1 
    23     14     22     ar 
    24     14     26     ar 
    25     15     16      1 
    26     16     17      1 
    27     16     21      1 
    28     16     35      1 
    29     17     18      1 
    30     17     36      1 
    31     17     37      1 
    32     18     19      1 
    33     18     38      1 
    34     18     39      1 
    35     19     20      1 
    36     19     40      1 
    37     20     21      1 
    38     20     41      1 
    39     20     42      1 
    40     21     43      1 
    41     21     44      1 
    42     22     23     ar 
    43     22     45      1 
    44     23     24     ar 
    45     23     27      1 
    46     24     25     ar 
    47     24     46      1 
    48     25     26     ar 
    49     25     47      1 
    50     26     48      1 
    51     27     28      1 
    52     28     49      1 
    53     28     50      1 
    54     28     51      1 
