@<TRIPOS>MOLECULE
*****
 48  51 0 0 0 
SMALL                                                                       
CHELPG                                                                    
                                                                            
@<TRIPOS>ATOM                                                               
      1   C       22.4266 39.3751 63.0646 C.ar 1  UNK  -51.9377 
      2  C1       21.0495 39.5822 63.4384 C.ar 1  UNK   28.5724 
      3  C2       20.6280 40.7711 63.9244 C.ar 1  UNK    1.4472 
      4  C3       21.5199 41.8807 64.0967 C.ar 1  UNK  -40.3735 
      5  C4       22.9491 41.6379 63.7128 C.ar 1  UNK  -80.7158 
      6  C5       23.3417 40.3651 63.1979 C.ar 1  UNK   94.1621 
      7   S       21.3760 43.2439 64.5643  S.3 1  UNK   75.0771 
      8  C6       22.7291 43.8132 64.4980  C.2 1  UNK  -49.1872 
      9  C7       23.6609 42.7945 63.9621  C.2 1  UNK   84.2590 
     10  C8       23.0509 45.1802 64.8773  C.2 1  UNK  -16.1095 
     11   O       22.0882 45.9109 65.2616  O.2 1  UNK   24.0725 
     12   N       24.3470 45.6240 64.8766 N.am 1  UNK  -61.1657 
     13  C9       24.6789 47.0092 65.0828  C.3 1  UNK    3.8674 
     14 C14       25.3442 47.6670 63.9064 C.ar 1  UNK  -81.3118 
     15  O1       24.9676 43.0595 63.6628  O.3 1  UNK  -28.7624 
     16 C11       25.9225 42.2350 64.3725  C.3 1  UNK  -19.6375 
     17 C12       26.5585 43.0657 65.4799  C.3 1  UNK  -29.9771 
     18 C13       27.7160 42.2994 66.1159  C.3 1  UNK  -159.2702 
     19  N1       28.6948 41.8419 65.1488  N.3 1  UNK   61.6299 
     20 C14       28.1261 41.0926 64.0453  C.3 1  UNK  -179.0141 
     21 C15       26.9742 41.8158 63.3513  C.3 1  UNK   28.8196 
     22 C22       26.5628 47.1785 63.4229 C.ar 1  UNK   58.8505 
     23 C23       27.1930 47.8072 62.3503 C.ar 1  UNK  -18.8332 
     24 C24       26.6112 48.9278 61.7568 C.ar 1  UNK    9.5384 
     25 C25       25.3962 49.4166 62.2361 C.ar 1  UNK  -32.3563 
     26 C26       24.7612 48.7868 63.3062 C.ar 1  UNK   62.0736 
     27  H1       22.7058 38.3892 62.6657    H 1  UNK   19.3456 
     28  H2       20.3543 38.7402 63.3120    H 1  UNK    7.1617 
     29  H3       19.5733 40.9214 64.2057    H 1  UNK   -2.2871 
     30  H4       24.3961 40.2322 62.9114    H 1  UNK  -43.5283 
     31  H5       25.0342 45.0495 64.4362    H 1  UNK   22.7063 
     32  H6       23.7424 47.5747 65.3626    H 1  UNK    3.0350 
     33  H7       25.3918 47.0617 65.9593    H 1  UNK   24.1303 
     34  H8       25.4136 41.3302 64.8026    H 1  UNK   -4.7484 
     35  H9       26.9280 44.0337 65.0507    H 1  UNK   19.8311 
     36 H10       25.7977 43.3052 66.2648    H 1  UNK   21.7721 
     37 H11       27.2825 41.4446 66.7164    H 1  UNK   57.0267 
     38 H12       28.2517 42.9808 66.8356    H 1  UNK   53.9853 
     39 H13       29.3970 41.2923 65.6079    H 1  UNK   19.2098 
     40 H14       27.7541 40.0759 64.3731    H 1  UNK   48.6894 
     41 H15       28.9515 40.9254 63.2966    H 1  UNK   60.8165 
     42 H16       27.3492 42.7238 62.8128    H 1  UNK    1.7905 
     43 H17       26.5155 41.1326 62.5922    H 1  UNK   15.7224 
     44 H18       27.0257 46.2957 63.8904    H 1  UNK  -30.0928 
     45 H19       28.1498 47.4180 61.9723    H 1  UNK    7.1823 
     46 H20       27.1094 49.4240 60.9113    H 1  UNK   11.0841 
     47 H21       24.9353 50.2988 61.7683    H 1  UNK   18.0769 
     48 H22       23.7989 49.1705 63.6776    H 1  UNK  -14.6274 
@<TRIPOS>BOND                                                              
     1      1      2     ar 
     2      1      6     ar 
     3      1     27      1 
     4      2      3     ar 
     5      2     28      1 
     6      3      4     ar 
     7      3     29      1 
     8      4      5     ar 
     9      4      7      1 
    10      5      6     ar 
    11      5      9      1 
    12      6     30      1 
    13      7      8      1 
    14      8      9      2 
    15      8     10      1 
    16      9     15      1 
    17     10     11      2 
    18     10     12     am 
    19     12     13      1 
    20     12     31      1 
    21     13     14      1 
    22     13     32      1 
    23     13     33      1 
    24     14     22     ar 
    25     14     26     ar 
    26     15     16      1 
    27     16     17      1 
    28     16     21      1 
    29     16     34      1 
    30     17     18      1 
    31     17     35      1 
    32     17     36      1 
    33     18     19      1 
    34     18     37      1 
    35     18     38      1 
    36     19     20      1 
    37     19     39      1 
    38     20     21      1 
    39     20     40      1 
    40     20     41      1 
    41     21     42      1 
    42     21     43      1 
    43     22     23     ar 
    44     22     44      1 
    45     23     24     ar 
    46     23     45      1 
    47     24     25     ar 
    48     24     46      1 
    49     25     26     ar 
    50     25     47      1 
    51     26     48      1 
