#	Name:			1_14a
#	Creating user name:	Mariana
#	Creation time:		Wed Jan 11 14:30:36 2017

#	Modifying user name:	Mariana
#	Modification time:	Wed Jan 11 14:30:36 2017

@<TRIPOS>MOLECULE
1_14a
   48    51     1     0     0
SMALL
NO_CHARGES


@<TRIPOS>ATOM
      1 C          21.9266   39.9187   63.8192 C.ar      1 UNN         0.0000 
      2 C1         20.9349   40.7071   63.2636 C.ar      1 UNN         0.0000 
      3 C2         21.2236   41.9310   62.6929 C.ar      1 UNN         0.0000 
      4 C3         22.5559   42.3508   62.6895 C.ar      1 UNN         0.0000 
      5 C4         23.6239   41.5301   63.2351 C.ar      1 UNN         0.0000 
      6 C5         23.2687   40.2900   63.8010 C.ar      1 UNN         0.0000 
      7 S          23.1986   43.8347   62.0810 S.3       1 UNN         0.0000 
      8 C6         24.8264   43.4053   62.4873 C.2       1 UNN         0.0000 
      9 C7         24.9154   42.1672   63.0933 C.2       1 UNN         0.0000 
     10 C8         25.9075   44.3319   62.2070 C.2       1 UNN         0.0000 
     11 O          27.0557   44.1433   62.6123 O.2       1 UNN         0.0000 
     12 N          25.5163   45.4015   61.4927 N.am      1 UNN         0.0000 
     13 C9         26.3420   46.5806   61.3289 C.3       1 UNN         0.0000 
     14 C14        25.6796   47.5708   62.2614 C.ar      1 UNN         0.0000 
     15 O1         26.0786   41.5716   63.5053 O.3       1 UNN         0.0000 
     16 C11        26.3361   41.3960   64.9031 C.3       1 UNN         0.0000 
     17 C12        25.3016   41.8686   65.9644 C.3       1 UNN         0.0000 
     18 C13        25.8552   41.7738   67.3962 C.3       1 UNN         0.0000 
     19 N1         27.1266   42.4805   67.4929 N.3       1 UNN         0.0000 
     20 C14        28.1502   41.8987   66.6364 C.3       1 UNN         0.0000 
     21 C15        27.7221   42.0243   65.1679 C.3       1 UNN         0.0000 
     22 C22        24.4397   48.1216   61.9261 C.ar      1 UNN         0.0000 
     23 C23        23.8136   48.9903   62.8045 C.ar      1 UNN         0.0000 
     24 C24        24.4246   49.3096   64.0124 C.ar      1 UNN         0.0000 
     25 C25        25.6600   48.7728   64.3426 C.ar      1 UNN         0.0000 
     26 C26        26.2853   47.9007   63.4697 C.ar      1 UNN         0.0000 
     27 H1         21.6523   38.9757   64.2715 H         1 UNN         0.0000 
     28 H2         19.9117   40.3654   63.2909 H         1 UNN         0.0000 
     29 H3         20.4396   42.5466   62.2770 H         1 UNN         0.0000 
     30 H4         24.0179   39.6400   64.2286 H         1 UNN         0.0000 
     31 H5         24.5662   45.4567   61.1549 H         1 UNN         0.0000 
     32 H6         27.3981   46.4397   61.5729 H         1 UNN         0.0000 
     33 H7         26.2826   46.9309   60.2971 H         1 UNN         0.0000 
     34 H8         26.4240   40.3152   65.0109 H         1 UNN         0.0000 
     35 H9         24.9995   42.8926   65.7714 H         1 UNN         0.0000 
     36 H10        24.3920   41.2749   65.9248 H         1 UNN         0.0000 
     37 H11        25.9928   40.7337   67.6974 H         1 UNN         0.0000 
     38 H12        25.1515   42.2132   68.1040 H         1 UNN         0.0000 
     39 H13        27.4394   42.4744   68.4518 H         1 UNN         0.0000 
     40 H14        28.3124   40.8553   66.9120 H         1 UNN         0.0000 
     41 H15        29.0914   42.4231   66.8037 H         1 UNN         0.0000 
     42 H16        27.7036   43.0785   64.8928 H         1 UNN         0.0000 
     43 H17        28.4856   41.5760   64.5341 H         1 UNN         0.0000 
     44 H18        23.9643   47.8627   60.9906 H         1 UNN         0.0000 
     45 H19        22.8519   49.4142   62.5547 H         1 UNN         0.0000 
     46 H20        23.9362   49.9724   64.6929 H         1 UNN         0.0000 
     47 H21        26.1263   49.0234   65.2843 H         1 UNN         0.0000 
     48 H22        27.2241   47.4657   63.7328 H         1 UNN         0.0000 
@<TRIPOS>BOND
     1    1    2 ar   
     2    1    6 ar   
     3    1   27 1    
     4    2    3 ar   
     5    2   28 1    
     6    3    4 ar   
     7    3   29 1    
     8    4    5 ar   
     9    4    7 1    
    10    5    6 ar   
    11    5    9 1    
    12    6   30 1    
    13    7    8 1    
    14    8    9 2    
    15    8   10 1    
    16    9   15 1    
    17   10   11 2    
    18   10   12 am   BACKBONE|DICT|INTERRES
    19   12   13 1    
    20   12   31 1    
    21   13   14 1    
    22   13   32 1    
    23   13   33 1    
    24   14   22 ar   
    25   14   26 ar   
    26   15   16 1    
    27   16   17 1    
    28   16   21 1    
    29   16   34 1    
    30   17   18 1    
    31   17   35 1    
    32   17   36 1    
    33   18   19 1    
    34   18   37 1    
    35   18   38 1    
    36   19   20 1    
    37   19   39 1    
    38   20   21 1    
    39   20   40 1    
    40   20   41 1    
    41   21   42 1    
    42   21   43 1    
    43   22   23 ar   
    44   22   44 1    
    45   23   24 ar   
    46   23   45 1    
    47   24   25 ar   
    48   24   46 1    
    49   25   26 ar   
    50   25   47 1    
    51   26   48 1    
@<TRIPOS>SUBSTRUCTURE
     1 UNN         1 GROUP             0 ****  ****    0 ROOT 
