@<TRIPOS>MOLECULE
*****
 48  51 0 0 0 
SMALL                                                                       
CHELPG                                                                    
                                                                            
@<TRIPOS>ATOM                                                               
      1   C       21.9266 39.9187 63.8192 C.ar 1  UNK  -89.6185 
      2  C1       20.9349 40.7071 63.2636 C.ar 1  UNK   48.6128 
      3  C2       21.2236 41.9310 62.6929 C.ar 1  UNK  -36.3635 
      4  C3       22.5559 42.3508 62.6895 C.ar 1  UNK   29.1066 
      5  C4       23.6239 41.5301 63.2351 C.ar 1  UNK  -98.5811 
      6  C5       23.2687 40.2900 63.8010 C.ar 1  UNK  122.6856 
      7   S       23.1986 43.8347 62.0810  S.3 1  UNK    2.0530 
      8  C6       24.8264 43.4053 62.4873  C.2 1  UNK   -7.8410 
      9  C7       24.9154 42.1672 63.0933  C.2 1  UNK   54.5850 
     10  C8       25.9075 44.3319 62.2070  C.2 1  UNK   34.8348 
     11   O       27.0557 44.1433 62.6123  O.2 1  UNK  -15.8254 
     12   N       25.5163 45.4015 61.4927 N.am 1  UNK  -55.1536 
     13  C9       26.3420 46.5806 61.3289  C.3 1  UNK  -13.2113 
     14 C14       25.6796 47.5708 62.2614 C.ar 1  UNK  -89.5747 
     15  O1       26.0786 41.5716 63.5053  O.3 1  UNK   20.9874 
     16 C11       26.3361 41.3960 64.9031  C.3 1  UNK  -150.8797 
     17 C12       25.3016 41.8686 65.9644  C.3 1  UNK  133.5596 
     18 C13       25.8552 41.7738 67.3962  C.3 1  UNK  -129.1997 
     19  N1       27.1266 42.4805 67.4929  N.3 1  UNK   20.5544 
     20 C14       28.1502 41.8987 66.6364  C.3 1  UNK  -165.0945 
     21 C15       27.7221 42.0243 65.1679  C.3 1  UNK  -12.2732 
     22 C22       24.4397 48.1216 61.9261 C.ar 1  UNK   31.9567 
     23 C23       23.8136 48.9903 62.8045 C.ar 1  UNK  -25.0295 
     24 C24       24.4246 49.3096 64.0124 C.ar 1  UNK    7.6203 
     25 C25       25.6600 48.7728 64.3426 C.ar 1  UNK  -39.9864 
     26 C26       26.2853 47.9007 63.4697 C.ar 1  UNK   84.5466 
     27  H1       21.6523 38.9757 64.2715    H 1  UNK   29.7607 
     28  H2       19.9117 40.3654 63.2909    H 1  UNK    6.0332 
     29  H3       20.4396 42.5466 62.2770    H 1  UNK   10.1252 
     30  H4       24.0179 39.6400 64.2286    H 1  UNK  -31.1489 
     31  H5       24.5662 45.4567 61.1549    H 1  UNK    3.3230 
     32  H6       27.3981 46.4397 61.5729    H 1  UNK   20.0816 
     33  H7       26.2826 46.9309 60.2971    H 1  UNK   40.1457 
     34  H8       26.4240 40.3152 65.0109    H 1  UNK   44.5621 
     35  H9       24.9995 42.8926 65.7714    H 1  UNK  -32.0211 
     36 H10       24.3920 41.2749 65.9248    H 1  UNK  -50.9173 
     37 H11       25.9928 40.7337 67.6974    H 1  UNK   40.1206 
     38 H12       25.1515 42.2132 68.1040    H 1  UNK   46.9947 
     39 H13       27.4394 42.4744 68.4518    H 1  UNK   27.0215 
     40 H14       28.3124 40.8553 66.9120    H 1  UNK   57.5140 
     41 H15       29.0914 42.4231 66.8037    H 1  UNK   63.3592 
     42 H16       27.7036 43.0785 64.8928    H 1  UNK    8.3161 
     43 H17       28.4856 41.5760 64.5341    H 1  UNK   38.0149 
     44 H18       23.9643 47.8627 60.9906    H 1  UNK   -4.6066 
     45 H19       22.8519 49.4142 62.5547    H 1  UNK   17.8839 
     46 H20       23.9362 49.9724 64.6929    H 1  UNK   14.2840 
     47 H21       26.1263 49.0234 65.2843    H 1  UNK   16.5829 
     48 H22       27.2241 47.4657 63.7328    H 1  UNK  -27.9003 
@<TRIPOS>BOND                                                              
     1      1      2     ar 
     2      1      6     ar 
     3      1     27      1 
     4      2      3     ar 
     5      2     28      1 
     6      3      4     ar 
     7      3     29      1 
     8      4      5     ar 
     9      4      7      1 
    10      5      6     ar 
    11      5      9      1 
    12      6     30      1 
    13      7      8      1 
    14      8      9      2 
    15      8     10      1 
    16      9     15      1 
    17     10     11      2 
    18     10     12     am 
    19     12     13      1 
    20     12     31      1 
    21     13     14      1 
    22     13     32      1 
    23     13     33      1 
    24     14     22     ar 
    25     14     26     ar 
    26     15     16      1 
    27     16     17      1 
    28     16     21      1 
    29     16     34      1 
    30     17     18      1 
    31     17     35      1 
    32     17     36      1 
    33     18     19      1 
    34     18     37      1 
    35     18     38      1 
    36     19     20      1 
    37     19     39      1 
    38     20     21      1 
    39     20     40      1 
    40     20     41      1 
    41     21     42      1 
    42     21     43      1 
    43     22     23     ar 
    44     22     44      1 
    45     23     24     ar 
    46     23     45      1 
    47     24     25     ar 
    48     24     46      1 
    49     25     26     ar 
    50     25     47      1 
    51     26     48      1 
