@<TRIPOS>MOLECULE
*****
 52  55 0 0 0 
SMALL                                                                       
LOEWDIN                                                                    
                                                                            
@<TRIPOS>ATOM                                                               
      1   C       22.8886 48.7855 61.7123 C.ar 1  UNK   -0.1568 
      2  C1       21.6233 48.2211 61.7056 C.ar 1  UNK   -0.1364 
      3  C2       21.4379 46.8583 61.8739 C.ar 1  UNK   -0.0805 
      4  C3       22.5726 46.0590 62.0478 C.ar 1  UNK   -1.1913 
      5  C4       23.9101 46.6204 62.0530 C.ar 1  UNK   -0.0619 
      6  C5       24.0387 48.0157 61.8844 C.ar 1  UNK   -0.0570 
      7   S       22.6508 44.3329 62.2924  S.3 1  UNK    2.5650 
      8  C6       24.3731 44.3416 62.4139  C.2 1  UNK   -1.2962 
      9  C7       24.9162 45.6034 62.2517  C.2 1  UNK    0.0672 
     10  C8       25.0991 43.1182 62.6956  C.2 1  UNK    0.4155 
     11   O       26.3254 43.0668 62.6203  O.2 1  UNK   -0.3416 
     12   N       24.3227 42.0870 63.0928 N.am 1  UNK   -0.4257 
     13  C9       24.9075 40.8522 63.6244  C.3 1  UNK    0.0394 
     14  H1       22.9876 49.8535 61.5822    H 1  UNK    0.1129 
     15  O1       26.2514 45.9087 62.3337  O.3 1  UNK   -0.1930 
     16 C11       27.0669 45.6197 61.1972  C.3 1  UNK    0.0543 
     17 C12       28.5212 45.6623 61.7057  C.3 1  UNK   -0.1921 
     18 C13       29.5530 45.6512 60.5674  C.3 1  UNK   -0.0724 
     19  N1       29.3163 46.7763 59.6730  N.3 1  UNK   -0.3032 
     20 C14       28.0034 46.7067 59.0364  C.3 1  UNK   -0.0667 
     21 C15       26.8348 46.6262 60.0608  C.3 1  UNK   -0.2269 
     22  H2       20.7614 48.8588 61.5704    H 1  UNK    0.1068 
     23  H3       20.4456 46.4322 61.8741    H 1  UNK    0.0827 
     24  H4       25.0101 48.4862 61.8921    H 1  UNK    0.1271 
     25  H5       23.3181 42.1820 63.1163    H 1  UNK    0.1463 
     26  H6       24.1257 40.0931 63.6754    H 1  UNK    0.0763 
     27  H7       25.6621 40.4582 62.9466    H 1  UNK    0.1118 
     28  H8       26.8553 44.6201 60.8206    H 1  UNK    0.0881 
     29 C29       25.5195 41.0568 65.0143 C.ar 1  UNK   -0.0821 
     30 C30       26.8166 41.5724 65.1456 C.ar 1  UNK   -0.1670 
     31 C31       27.3746 41.7638 66.4167 C.ar 1  UNK    0.0988 
     32 C32       26.6331 41.4322 67.5466 C.ar 1  UNK   -0.1467 
     33 C33       25.3462 40.9156 67.4176 C.ar 1  UNK   -0.1041 
     34 C34       24.7878 40.7278 66.1554 C.ar 1  UNK   -0.1647 
     35 O35       28.6529 42.2749 66.5701  O.3 1  UNK   -0.2246 
     36 C36       29.3963 42.7244 65.4403  C.3 1  UNK   -0.0615 
     37  H9       28.6719 46.5704 62.2912    H 1  UNK    0.0837 
     38 H10       28.7032 44.8265 62.3832    H 1  UNK    0.0965 
     39 H11       29.5027 44.7218 60.0004    H 1  UNK    0.0910 
     40 H12       30.5613 45.7317 60.9740    H 1  UNK    0.0862 
     41 H13       29.4259 47.6511 60.1682    H 1  UNK    0.1508 
     42 H14       28.0237 45.8390 58.3782    H 1  UNK    0.0850 
     43 H15       27.8762 47.5713 58.3867    H 1  UNK    0.0852 
     44 H16       26.6535 47.5723 60.5437    H 1  UNK    0.0882 
     45 H17       25.8989 46.4085 59.5457    H 1  UNK    0.0847 
     46 H18       27.3863 41.8142 64.2671    H 1  UNK    0.1658 
     47 H19       27.0568 41.5737 68.5287    H 1  UNK    0.1431 
     48 H20       24.7837 40.6606 68.2976    H 1  UNK    0.1311 
     49 H21       23.7885 40.3283 66.0626    H 1  UNK    0.1172 
     50 H22       30.3428 43.1449 65.7791    H 1  UNK    0.1016 
     51 H23       28.8648 43.5057 64.8944    H 1  UNK    0.0856 
     52 H24       29.6262 41.9019 64.7616    H 1  UNK    0.0642 
@<TRIPOS>BOND                                                              
     1      1      2     ar 
     2      1      6     ar 
     3      1     14      1 
     4      2      3     ar 
     5      2     22      1 
     6      3      4     ar 
     7      3     23      1 
     8      4      5     ar 
     9      4      7      1 
    10      5      6     ar 
    11      5      9      1 
    12      6     24      1 
    13      7      8      1 
    14      8      9      2 
    15      8     10      1 
    16      9     15      1 
    17     10     11      2 
    18     10     12     am 
    19     12     13      1 
    20     12     25      1 
    21     13     29      1 
    22     13     26      1 
    23     13     27      1 
    24     15     16      1 
    25     16     17      1 
    26     16     21      1 
    27     16     28      1 
    28     17     18      1 
    29     17     37      1 
    30     17     38      1 
    31     18     19      1 
    32     18     39      1 
    33     18     40      1 
    34     19     20      1 
    35     19     41      1 
    36     20     21      1 
    37     20     42      1 
    38     20     43      1 
    39     21     44      1 
    40     21     45      1 
    41     29     30     ar 
    42     29     34     ar 
    43     30     31     ar 
    44     30     46      1 
    45     31     32     ar 
    46     31     35      1 
    47     32     33     ar 
    48     32     47      1 
    49     33     34     ar 
    50     33     48      1 
    51     34     49      1 
    52     35     36      1 
    53     36     50      1 
    54     36     51      1 
    55     36     52      1 
