@<TRIPOS>MOLECULE
*****
 52  55 0 0 0 
SMALL                                                                       
CHELPG                                                                    
                                                                            
@<TRIPOS>ATOM                                                               
      1   C       22.8213 48.8652 61.3488 C.ar 1  UNK  -29.2424 
      2  C1       21.5140 48.2643 61.2485 C.ar 1  UNK    8.8907 
      3  C2       21.3344 46.9386 61.4405 C.ar 1  UNK   47.8535 
      4  C3       22.4265 46.0618 61.7527 C.ar 1  UNK  -132.3780 
      5  C4       23.7757 46.7107 61.8510 C.ar 1  UNK   22.3500 
      6  C5       23.9120 48.1166 61.6400 C.ar 1  UNK   24.9717 
      7   S       22.5651 44.6469 62.0101  S.3 1  UNK  138.7952 
      8  C6       23.9840 44.4262 62.2667  C.2 1  UNK  -100.7205 
      9  C7       24.6975 45.7345 62.1639  C.2 1  UNK   15.0860 
     10  C8       24.7350 43.2186 62.5702  C.2 1  UNK   54.8007 
     11   O       25.7844 42.8689 62.0088  O.2 1  UNK    4.8766 
     12   N       24.0762 42.3735 63.5127 N.am 1  UNK  -90.6870 
     13  C9       24.6799 41.0992 63.8374  C.3 1  UNK   12.2885 
     14  H1       22.9000 49.9491 61.1813    H 1  UNK   22.1652 
     15  O1       26.0122 45.9175 62.4687  O.3 1  UNK   17.4990 
     16 C11       26.9151 45.6272 61.3718  C.3 1  UNK   24.9241 
     17 C12       28.2241 45.1953 62.0229  C.3 1  UNK  -191.9030 
     18 C13       29.3244 45.0853 60.9670  C.3 1  UNK  -69.7020 
     19  N1       29.4955 46.2504 60.1198  N.3 1  UNK   58.9085 
     20 C14       28.2436 46.6954 59.5364  C.3 1  UNK  -129.2929 
     21 C15       27.0953 46.8823 60.5272  C.3 1  UNK  -71.5003 
     22  H2       20.6671 48.9238 61.0106    H 1  UNK    7.7467 
     23  H3       20.3317 46.4889 61.3626    H 1  UNK   -9.8729 
     24  H4       24.9221 48.5461 61.7231    H 1  UNK  -19.3034 
     25  H5       23.7963 42.8755 64.3320    H 1  UNK   21.4476 
     26  H6       23.8281 40.3823 64.0258    H 1  UNK   21.0467 
     27  H7       25.2584 40.7295 62.9406    H 1  UNK   13.6801 
     28  H8       26.5009 44.7844 60.7538    H 1  UNK    6.9934 
     29 C29       25.5989 41.0990 65.0263 C.ar 1  UNK  -88.4015 
     30 C30       26.7849 41.8399 64.9765 C.ar 1  UNK   84.7492 
     31 C31       27.6472 41.8222 66.0773 C.ar 1  UNK  -33.5877 
     32 C32       27.3367 41.0667 67.2251 C.ar 1  UNK   -2.1397 
     33 C33       26.1563 40.3350 67.2519 C.ar 1  UNK    6.2109 
     34 C34       25.2846 40.3493 66.1604 C.ar 1  UNK   25.1086 
     35 O35       28.8423 42.5110 66.1431  O.3 1  UNK   27.4404 
     36 C36       29.1699 43.3091 65.0105  C.3 1  UNK  -86.6199 
     37  H9       28.5088 45.9320 62.8169    H 1  UNK   54.4867 
     38 H10       28.0738 44.1993 62.5158    H 1  UNK   55.0202 
     39 H11       29.0907 44.2119 60.2941    H 1  UNK   37.3923 
     40 H12       30.3042 44.8746 61.4786    H 1  UNK   31.3115 
     41 H13       29.8997 46.9988 60.6558    H 1  UNK   14.3679 
     42 H14       27.9389 45.9284 58.7692    H 1  UNK   50.3643 
     43 H15       28.4296 47.6663 58.9991    H 1  UNK   53.8207 
     44 H16       27.2986 47.7549 61.2008    H 1  UNK   32.3622 
     45 H17       26.1472 47.1010 59.9733    H 1  UNK   12.1970 
     46 H18       27.0192 42.4192 64.0681    H 1  UNK  -42.5120 
     47 H19       28.0309 41.0668 68.0769    H 1  UNK    9.8560 
     48 H20       25.9060 39.7394 68.1426    H 1  UNK   12.0056 
     49 H21       24.3545 39.7643 66.1970    H 1  UNK   -2.1403 
     50 H22       30.1489 43.7717 65.2950    H 1  UNK   39.7344 
     51 H23       28.3951 44.0965 64.8403    H 1  UNK   10.7446 
     52 H24       29.2844 42.6720 64.0997    H 1  UNK   18.5066 
@<TRIPOS>BOND                                                              
     1      1      2     ar 
     2      1      6     ar 
     3      1     14      1 
     4      2      3     ar 
     5      2     22      1 
     6      3      4     ar 
     7      3     23      1 
     8      4      5     ar 
     9      4      7      1 
    10      5      6     ar 
    11      5      9      1 
    12      6     24      1 
    13      7      8      1 
    14      8      9      2 
    15      8     10      1 
    16      9     15      1 
    17     10     11      2 
    18     10     12     am 
    19     12     13      1 
    20     12     25      1 
    21     13     29      1 
    22     13     26      1 
    23     13     27      1 
    24     15     16      1 
    25     16     17      1 
    26     16     21      1 
    27     16     28      1 
    28     17     18      1 
    29     17     37      1 
    30     17     38      1 
    31     18     19      1 
    32     18     39      1 
    33     18     40      1 
    34     19     20      1 
    35     19     41      1 
    36     20     21      1 
    37     20     42      1 
    38     20     43      1 
    39     21     44      1 
    40     21     45      1 
    41     29     30     ar 
    42     29     34     ar 
    43     30     31     ar 
    44     30     46      1 
    45     31     32     ar 
    46     31     35      1 
    47     32     33     ar 
    48     32     47      1 
    49     33     34     ar 
    50     33     48      1 
    51     34     49      1 
    52     35     36      1 
    53     36     50      1 
    54     36     51      1 
    55     36     52      1 
