@<TRIPOS>MOLECULE
*****
 51  54 0 0 0 
SMALL                                                                       
CHELPG                                                                    
                                                                            
@<TRIPOS>ATOM                                                               
      1   C       29.6491 43.2136 63.0681 C.ar 1  UNK  -45.5508 
      2  C1       29.7664 44.6008 62.6902 C.ar 1  UNK  -12.2139 
      3  C2       28.6814 45.4034 62.6254 C.ar 1  UNK   46.3799 
      4  C3       27.3625 44.9251 62.9292 C.ar 1  UNK   48.7610 
      5  C4       27.2680 43.4827 63.3313 C.ar 1  UNK  -77.9237 
      6  C5       28.4454 42.6753 63.3775 C.ar 1  UNK   66.6131 
      7   S       26.0441 45.5113 62.9377  S.3 1  UNK  -126.7809 
      8  C6       25.1420 44.4331 63.3838  C.2 1  UNK  121.8533 
      9  C7       25.9460 43.1963 63.5991  C.2 1  UNK   37.1254 
     10  C8       23.7266 44.4438 63.5847  C.2 1  UNK  -68.9401 
     11   O       22.9198 43.6737 64.0920  O.2 1  UNK    9.4494 
     12  O1       23.2084 45.6498 63.0911  O.3 1  UNK   22.2513 
     13  C9       21.8218 45.9043 63.3051  C.3 1  UNK  -94.8968 
     14  O2       25.3877 41.9817 63.8597  O.3 1  UNK    1.5067 
     15 C10       25.6543 41.4804 65.1917  C.3 1  UNK  -129.2378 
     16 C11       24.7358 42.1477 66.2037  C.3 1  UNK   62.2857 
     17 C12       24.8404 41.4608 67.5620  C.3 1  UNK  -167.0608 
     18   N       24.6565 40.0238 67.5007  N.3 1  UNK   86.3708 
     19 C13       25.4827 39.3628 66.5100  C.3 1  UNK  -230.2277 
     20 C14       25.3759 39.9836 65.1194  C.3 1  UNK  -15.6784 
     21 C15       21.4292 47.0410 62.3707  C.3 1  UNK  -166.0967 
     22  O3       21.9083 48.3021 62.8438  O.3 1  UNK   41.8257 
     23 C16       23.2164 48.6263 62.5325 C.ar 1  UNK  -15.0487 
     24 C17       23.9714 49.2056 63.5684 C.ar 1  UNK    3.6208 
     25 C18       25.2619 49.6533 63.3020 C.ar 1  UNK    5.4545 
     26 C19       25.8079 49.5183 62.0240 C.ar 1  UNK   -8.3678 
     27 C20       25.0525 48.9466 61.0009 C.ar 1  UNK   -5.0416 
     28 C21       23.7549 48.4985 61.2447 C.ar 1  UNK   43.0442 
     29   H       30.5685 42.6111 63.0935    H 1  UNK   24.1691 
     30  H1       30.7705 44.9816 62.4552    H 1  UNK   20.6561 
     31  H2       28.7798 46.4616 62.3347    H 1  UNK  -33.7299 
     32  H3       28.3282 41.6189 63.6624    H 1  UNK  -21.3049 
     33  H4       21.2220 44.9847 63.0732    H 1  UNK   51.6657 
     34  H5       21.6750 46.1891 64.3794    H 1  UNK   32.6542 
     35  H6       26.7325 41.6703 65.4488    H 1  UNK   26.0474 
     36  H7       23.6820 42.1131 65.8173    H 1  UNK   -1.2737 
     37  H8       25.0158 43.2256 66.3163    H 1  UNK  -11.0416 
     38  H9       25.8379 41.7368 68.0196    H 1  UNK   55.3857 
     39 H10       24.0355 41.8683 68.2371    H 1  UNK   52.0904 
     40 H11       24.8230 39.6213 68.4043    H 1  UNK   16.0119 
     41 H12       26.5743 39.3550 66.8075    H 1  UNK   70.4730 
     42 H13       25.1407 38.2905 66.4538    H 1  UNK   76.6466 
     43 H14       24.3518 39.8209 64.6943    H 1  UNK   39.3278 
     44 H15       26.1146 39.4910 64.4383    H 1  UNK   36.9596 
     45 H16       21.7729 46.8368 61.3263    H 1  UNK   52.2299 
     46 H17       20.3121 47.1704 62.3958    H 1  UNK   71.7610 
     47 H18       23.5229 49.3181 64.5663    H 1  UNK    1.3630 
     48 H19       25.8502 50.1268 64.1030    H 1  UNK    8.5752 
     49 H20       26.8239 49.8863 61.8189    H 1  UNK    5.5366 
     50 H21       25.4716 48.8686 59.9860    H 1  UNK   10.0572 
     51 H22       23.1568 48.0710 60.4273    H 1  UNK  -17.7362 
@<TRIPOS>BOND                                                              
     1      1      2     ar 
     2      1      6     ar 
     3      1     29      1 
     4      2      3     ar 
     5      2     30      1 
     6      3      4     ar 
     7      3     31      1 
     8      4      5     ar 
     9      4      7      1 
    10      5      6     ar 
    11      5      9      1 
    12      6     32      1 
    13      7      8      1 
    14      8      9      2 
    15      8     10      1 
    16      9     14      1 
    17     10     11      2 
    18     10     12      1 
    19     12     13      1 
    20     13     21      1 
    21     13     33      1 
    22     13     34      1 
    23     14     15      1 
    24     15     16      1 
    25     15     20      1 
    26     15     35      1 
    27     16     17      1 
    28     16     36      1 
    29     16     37      1 
    30     17     18      1 
    31     17     38      1 
    32     17     39      1 
    33     18     19      1 
    34     18     40      1 
    35     19     20      1 
    36     19     41      1 
    37     19     42      1 
    38     20     43      1 
    39     20     44      1 
    40     21     22      1 
    41     21     45      1 
    42     21     46      1 
    43     22     23      1 
    44     23     24     ar 
    45     23     28     ar 
    46     24     25     ar 
    47     24     47      1 
    48     25     26     ar 
    49     25     48      1 
    50     26     27     ar 
    51     26     49      1 
    52     27     28     ar 
    53     27     50      1 
    54     28     51      1 
