@<TRIPOS>MOLECULE
*****
 53  56 0 0 0 
SMALL                                                                       
CHELPG                                                                    
                                                                            
@<TRIPOS>ATOM                                                               
      1   C       23.3971 38.8247 62.3409 C.ar 1  UNK  -22.7956 
      2  C1       22.2873 39.5062 61.7197 C.ar 1  UNK   -2.5481 
      3  C2       22.2220 40.8551 61.6853 C.ar 1  UNK   16.4615 
      4  C3       23.2455 41.6806 62.2632 C.ar 1  UNK   -8.0512 
      5  C4       24.3866 40.9476 62.9060 C.ar 1  UNK  -53.6391 
      6  C5       24.4100 39.5194 62.9113 C.ar 1  UNK   41.0557 
      7   S       23.4652 43.0984 62.3818  S.3 1  UNK    5.5408 
      8  C6       24.7361 43.2438 63.1115  C.2 1  UNK   20.7943 
      9  C7       25.2780 41.8798 63.3919  C.2 1  UNK   37.1954 
     10  C8       25.4465 44.4223 63.4992  C.2 1  UNK   -8.3299 
     11   O       26.4500 44.6275 64.1761  O.2 1  UNK  -19.6244 
     12  O1       24.8039 45.5535 62.9851  O.3 1  UNK  -18.6443 
     13  C9       25.4095 46.8177 63.2825  C.3 1  UNK   14.5915 
     14  O2       26.5112 41.6137 63.9017  O.3 1  UNK   21.6136 
     15 C15       26.6271 41.8309 65.3287  C.3 1  UNK  -155.7410 
     16 C16       26.2017 40.5716 66.0711  C.3 1  UNK   29.6849 
     17 C17       26.5355 40.6920 67.5556  C.3 1  UNK  -158.2047 
     18 N18       27.9211 41.0387 67.8053  N.3 1  UNK   80.9702 
     19 C19       28.3787 42.2057 67.0752  C.3 1  UNK  -205.6631 
     20 C20       28.0989 42.1379 65.5763  C.3 1  UNK  -18.4843 
     21  H1       23.3909 37.7253 62.3331    H 1  UNK   18.6341 
     22  H2       21.4956 38.8876 61.2732    H 1  UNK   13.5505 
     23  H3       21.3719 41.3667 61.2067    H 1  UNK   -5.3879 
     24  H4       25.2712 39.0290 63.3904    H 1  UNK  -16.9080 
     25  H5       25.4020 46.9665 64.3940    H 1  UNK   12.5350 
     26  H6       26.4720 46.8016 62.9221    H 1  UNK   24.9471 
     27  H7       25.9933 42.7084 65.6296    H 1  UNK   46.4890 
     28  H8       26.7257 39.6867 65.6254    H 1  UNK   16.5776 
     29 C29       24.6037 47.8829 62.5633  C.3 1  UNK  -176.0630 
     30 C30       23.2531 48.1043 63.2160  C.3 1  UNK  -36.7915 
     31 C31       22.4415 49.1186 62.4898 C.ar 1  UNK  -27.2043 
     32 C32       21.9519 48.8450 61.2065 C.ar 1  UNK   23.8949 
     33 C33       21.1823 49.7886 60.5295 C.ar 1  UNK    6.1984 
     34 C34       20.8929 51.0150 61.1283 C.ar 1  UNK  -16.9036 
     35 C35       21.3764 51.2936 62.4062 C.ar 1  UNK    2.9243 
     36 C36       22.1473 50.3506 63.0849 C.ar 1  UNK    6.2500 
     37  H9       25.1002 40.4111 65.9528    H 1  UNK   -2.6980 
     38 H10       25.8235 41.4416 68.0150    H 1  UNK   54.3899 
     39 H11       26.3462 39.6988 68.0529    H 1  UNK   53.9625 
     40 H12       28.0629 41.1774 68.7886    H 1  UNK   14.7581 
     41 H13       27.9182 43.1586 67.4742    H 1  UNK   61.1016 
     42 H14       29.4924 42.2776 67.2309    H 1  UNK   70.5257 
     43 H15       28.7303 41.3486 65.0941    H 1  UNK   43.9305 
     44 H16       28.3494 43.1242 65.1067    H 1  UNK   30.7392 
     45 H17       25.1957 48.8353 62.5816    H 1  UNK   56.3612 
     46 H18       24.4614 47.5890 61.4907    H 1  UNK   56.5042 
     47 H19       22.6958 47.1288 63.2385    H 1  UNK   21.7776 
     48 H20       23.4040 48.4216 64.2827    H 1  UNK   24.4421 
     49 H21       22.1815 47.8802 60.7313    H 1  UNK  -18.3150 
     50 H22       20.8035 49.5665 59.5211    H 1  UNK    9.4901 
     51 H23       20.2856 51.7597 60.5937    H 1  UNK   16.0297 
     52 H24       21.1505 52.2598 62.8812    H 1  UNK   13.6326 
     53 H25       22.5260 50.5766 64.0930    H 1  UNK    4.4434 
@<TRIPOS>BOND                                                              
     1      1      2     ar 
     2      1      6     ar 
     3      1     21      1 
     4      2      3     ar 
     5      2     22      1 
     6      3      4     ar 
     7      3     23      1 
     8      4      5     ar 
     9      4      7      1 
    10      5      6     ar 
    11      5      9      1 
    12      6     24      1 
    13      7      8      1 
    14      8      9      2 
    15      8     10      1 
    16      9     14      1 
    17     10     11      2 
    18     10     12      1 
    19     12     13      1 
    20     13     29      1 
    21     13     25      1 
    22     13     26      1 
    23     14     15      1 
    24     15     16      1 
    25     15     20      1 
    26     15     27      1 
    27     16     17      1 
    28     16     28      1 
    29     16     37      1 
    30     17     18      1 
    31     17     38      1 
    32     17     39      1 
    33     18     19      1 
    34     18     40      1 
    35     19     20      1 
    36     19     41      1 
    37     19     42      1 
    38     20     43      1 
    39     20     44      1 
    40     29     30      1 
    41     29     45      1 
    42     29     46      1 
    43     30     31      1 
    44     30     47      1 
    45     30     48      1 
    46     31     32     ar 
    47     31     36     ar 
    48     32     33     ar 
    49     32     49      1 
    50     33     34     ar 
    51     33     50      1 
    52     34     35     ar 
    53     34     51      1 
    54     35     36     ar 
    55     35     52      1 
    56     36     53      1 
