@<TRIPOS>MOLECULE
*****
 50  53 0 0 0 
SMALL                                                                       
CHELPG                                                                    
                                                                            
@<TRIPOS>ATOM                                                               
      1   C       21.7497 39.6625 63.7322 C.ar 1  UNK  -38.9728 
      2  C1       20.8034 40.3536 62.8906 C.ar 1  UNK   15.5824 
      3  C2       21.1064 41.5405 62.3208 C.ar 1  UNK   -8.5863 
      4  C3       22.3782 42.1769 62.5210 C.ar 1  UNK   15.2943 
      5  C4       23.3428 41.4396 63.4029 C.ar 1  UNK  -84.3792 
      6  C5       22.9747 40.1850 63.9781 C.ar 1  UNK   60.8330 
      7   S       22.9901 43.3979 62.0624  S.3 1  UNK    1.5774 
      8  C6       24.3304 43.4212 62.6755  C.2 1  UNK  -51.7258 
      9  C7       24.5071 42.1739 63.4764  C.2 1  UNK  104.7845 
     10  C8       25.3698 44.3952 62.5570  C.2 1  UNK   32.8568 
     11   O       26.4455 44.5691 63.1223  O.2 1  UNK  -27.2150 
     12  O1       25.0113 45.3346 61.5836  O.3 1  UNK   31.5337 
     13  C9       25.8637 46.4606 61.3917  C.3 1  UNK  -148.3016 
     14  H1       21.4416 38.6993 64.1639    H 1  UNK   20.8822 
     15  O2       25.6723 41.7672 64.0502  O.3 1  UNK   -0.7225 
     16 C11       26.0090 42.4637 65.2742  C.3 1  UNK  -133.6666 
     17 C12       25.3491 41.7646 66.4547  C.3 1  UNK   14.6566 
     18 C13       25.8755 42.3314 67.7704  C.3 1  UNK  -123.4626 
     19   N       27.3226 42.3208 67.8607  N.3 1  UNK   66.4192 
     20 C14       27.9891 42.9360 66.7288  C.3 1  UNK  -198.5933 
     21 C15       27.5275 42.3934 65.3789  C.3 1  UNK  -10.1059 
     22  H2       19.8253 39.8786 62.7279    H 1  UNK   11.1274 
     23  H3       20.3781 42.0601 61.6781    H 1  UNK    1.5645 
     24  H4       23.7194 39.6814 64.6133    H 1  UNK  -20.9849 
     25  H5       26.9373 46.1345 61.4217    H 1  UNK   71.9833 
     26  H6       25.5911 46.8224 60.3636    H 1  UNK   54.8309 
     27  H7       25.6759 43.5344 65.2031    H 1  UNK   36.1642 
     28 C28       25.6222 47.5364 62.4396  C.3 1  UNK  -223.1802 
     29 C29       24.2642 48.1386 62.3668 C.ar 1  UNK   53.7305 
     30 C30       23.3820 48.0281 63.4483 C.ar 1  UNK   45.7008 
     31 C31       22.1140 48.6049 63.3852 C.ar 1  UNK  -54.4541 
     32 C32       21.7152 49.2970 62.2423 C.ar 1  UNK   -0.8819 
     33 C33       22.5909 49.4148 61.1626 C.ar 1  UNK    5.6631 
     34 C34       23.8589 48.8406 61.2244 C.ar 1  UNK  -32.4981 
     35  H8       25.5578 40.6649 66.3942    H 1  UNK   16.9694 
     36  H9       24.2393 41.9040 66.4106    H 1  UNK   -6.3979 
     37 H10       25.4525 43.3731 67.8972    H 1  UNK   41.4806 
     38 H11       25.4843 41.7032 68.6200    H 1  UNK   48.5165 
     39 H12       27.6121 42.7696 68.7097    H 1  UNK   16.5328 
     40 H13       27.8519 44.0588 66.7197    H 1  UNK   56.6918 
     41 H14       29.0914 42.7313 66.8419    H 1  UNK   70.8609 
     42 H15       27.8612 41.3325 65.2471    H 1  UNK   39.9680 
     43 H16       27.9791 43.0084 64.5580    H 1  UNK   27.0643 
     44 H17       25.7980 47.0869 63.4546    H 1  UNK   62.2335 
     45 H18       26.3895 48.3436 62.2882    H 1  UNK   88.9074 
     46 H19       23.6959 47.4933 64.3576    H 1  UNK  -18.8584 
     47 H20       21.4311 48.5205 64.2435    H 1  UNK   24.4336 
     48 H21       20.7167 49.7553 62.1949    H 1  UNK   14.5454 
     49 H22       22.2828 49.9675 60.2628    H 1  UNK   16.0517 
     50 H23       24.5504 48.9429 60.3746    H 1  UNK   13.5466 
@<TRIPOS>BOND                                                              
     1      1      2     ar 
     2      1      6     ar 
     3      1     14      1 
     4      2      3     ar 
     5      2     22      1 
     6      3      4     ar 
     7      3     23      1 
     8      4      5     ar 
     9      4      7      1 
    10      5      6     ar 
    11      5      9      1 
    12      6     24      1 
    13      7      8      1 
    14      8      9      2 
    15      8     10      1 
    16      9     15      1 
    17     10     11      2 
    18     10     12      1 
    19     12     13      1 
    20     13     28      1 
    21     13     25      1 
    22     13     26      1 
    23     15     16      1 
    24     16     17      1 
    25     16     21      1 
    26     16     27      1 
    27     17     18      1 
    28     17     35      1 
    29     17     36      1 
    30     18     19      1 
    31     18     37      1 
    32     18     38      1 
    33     19     20      1 
    34     19     39      1 
    35     20     21      1 
    36     20     40      1 
    37     20     41      1 
    38     21     42      1 
    39     21     43      1 
    40     28     29      1 
    41     28     44      1 
    42     28     45      1 
    43     29     30     ar 
    44     29     34     ar 
    45     30     31     ar 
    46     30     46      1 
    47     31     32     ar 
    48     31     47      1 
    49     32     33     ar 
    50     32     48      1 
    51     33     34     ar 
    52     33     49      1 
    53     34     50      1 
