@<TRIPOS>MOLECULE
*****
 54  57 0 0 0 
SMALL                                                                       
LOEWDIN                                                                    
                                                                            
@<TRIPOS>ATOM                                                               
      1   C       21.9842 39.3438 63.9044 C.ar 1  UNK   -0.1508 
      2  C1       20.9704 40.0505 63.1604 C.ar 1  UNK   -0.1471 
      3  C2       21.2461 41.2135 62.5302 C.ar 1  UNK   -0.0659 
      4  C3       22.5529 41.8062 62.5668 C.ar 1  UNK   -1.2266 
      5  C4       23.5873 41.0573 63.3535 C.ar 1  UNK   -0.0716 
      6  C5       23.2450 39.8296 63.9987 C.ar 1  UNK   -0.0663 
      7   S       23.1502 42.9928 62.0033  S.3 1  UNK    2.6588 
      8  C6       24.5463 42.9875 62.4716  C.2 1  UNK   -1.2559 
      9  C7       24.7713 41.7633 63.2951  C.2 1  UNK    0.0538 
     10  C8       25.5922 43.9280 62.2135  C.2 1  UNK    0.4026 
     11   O       26.7318 44.0870 62.6361  O.2 1  UNK   -0.3229 
     12  O1       25.1397 44.8573 61.2657  O.3 1  UNK   -0.3705 
     13  C9       25.9662 45.9821 60.9827  C.3 1  UNK    0.0138 
     14  H1       21.6974 38.3992 64.3888    H 1  UNK    0.1097 
     15  O2       25.9946 41.3634 63.7328  O.3 1  UNK   -0.1845 
     16 C11       26.2774 41.5568 65.1380  C.3 1  UNK    0.0512 
     17 C12       27.5927 42.3214 65.2274  C.3 1  UNK   -0.1656 
     18 C13       27.9697 42.5603 66.6869  C.3 1  UNK   -0.0716 
     19   N       26.9122 43.1721 67.4690  N.3 1  UNK   -0.3027 
     20 C14       25.6323 42.4998 67.3583  C.3 1  UNK   -0.0690 
     21 C15       25.1904 42.2795 65.9133  C.3 1  UNK   -0.1640 
     22  H2       19.9646 39.6083 63.1237    H 1  UNK    0.1059 
     23  H3       20.4656 41.7466 61.9641    H 1  UNK    0.0843 
     24  H4       24.0390 39.3104 64.5562    H 1  UNK    0.1232 
     25  H5       27.0381 45.6582 60.9048    H 1  UNK    0.1167 
     26  H6       25.5903 46.3392 59.9861    H 1  UNK    0.0851 
     27  H7       26.4063 40.5109 65.5406    H 1  UNK    0.0727 
     28  H8       27.4899 43.2936 64.6762    H 1  UNK    0.1099 
     29  H9       28.4053 41.7345 64.7297    H 1  UNK    0.0895 
     30 C30       25.8303 47.0619 62.0457  C.3 1  UNK   -0.1497 
     31 C31       24.4568 47.6273 62.1397 C.ar 1  UNK   -0.0335 
     32 C32       23.9016 48.3042 61.0458 C.ar 1  UNK   -0.2309 
     33 C33       22.6125 48.8358 61.1472 C.ar 1  UNK    0.0803 
     34 C34       21.8673 48.7040 62.3346 C.ar 1  UNK   -0.1655 
     35 C35       22.4354 48.0365 63.4125 C.ar 1  UNK   -0.0931 
     36 C36       23.7206 47.4986 63.3212 C.ar 1  UNK   -0.1676 
     37 O37       21.9609 49.5017 60.1261  O.3 1  UNK   -0.2246 
     38 C38       22.7377 49.7939 58.9707  C.3 1  UNK   -0.0584 
     39 H10       28.3009 41.5737 67.1308    H 1  UNK    0.0404 
     40 H11       28.8528 43.2593 66.7215    H 1  UNK    0.0839 
     41 H12       27.1872 43.2192 68.4326    H 1  UNK    0.1427 
     42 H13       25.6348 41.4962 67.8803    H 1  UNK    0.0431 
     43 H14       24.8695 43.1470 67.8765    H 1  UNK    0.0820 
     44 H15       24.9778 43.2631 65.4194    H 1  UNK    0.0897 
     45 H16       24.2470 41.6746 65.9050    H 1  UNK    0.0901 
     46 H17       26.1414 46.6255 63.0339    H 1  UNK    0.1010 
     47 H18       26.5508 47.8872 61.7963    H 1  UNK    0.1088 
     48 H19       24.4885 48.4142 60.1233    H 1  UNK    0.1404 
     49 H20       20.8585 49.1354 62.3920    H 1  UNK    0.1498 
     50 H21       21.8687 47.9390 64.3512    H 1  UNK    0.1438 
     51 H22       24.1609 46.9837 64.1883    H 1  UNK    0.1431 
     52 H23       22.0407 50.3959 58.3338    H 1  UNK    0.1126 
     53 H24       23.0317 48.8512 58.4482    H 1  UNK    0.0531 
     54 H25       23.6426 50.3909 59.2390    H 1  UNK    0.0765 
@<TRIPOS>BOND                                                              
     1      1      2     ar 
     2      1      6     ar 
     3      1     14      1 
     4      2      3     ar 
     5      2     22      1 
     6      3      4     ar 
     7      3     23      1 
     8      4      5     ar 
     9      4      7      1 
    10      5      6     ar 
    11      5      9      1 
    12      6     24      1 
    13      7      8      1 
    14      8      9      2 
    15      8     10      1 
    16      9     15      1 
    17     10     11      2 
    18     10     12      1 
    19     12     13      1 
    20     13     30      1 
    21     13     25      1 
    22     13     26      1 
    23     15     16      1 
    24     16     17      1 
    25     16     21      1 
    26     16     27      1 
    27     17     18      1 
    28     17     28      1 
    29     17     29      1 
    30     18     19      1 
    31     18     39      1 
    32     18     40      1 
    33     19     20      1 
    34     19     41      1 
    35     20     21      1 
    36     20     42      1 
    37     20     43      1 
    38     21     44      1 
    39     21     45      1 
    40     30     31      1 
    41     30     46      1 
    42     30     47      1 
    43     31     32     ar 
    44     31     36     ar 
    45     32     33     ar 
    46     32     48      1 
    47     33     34     ar 
    48     33     37      1 
    49     34     35     ar 
    50     34     49      1 
    51     35     36     ar 
    52     35     50      1 
    53     36     51      1 
    54     37     38      1 
    55     38     52      1 
    56     38     53      1 
    57     38     54      1 
