@<TRIPOS>MOLECULE
*****
 51  54 0 0 0 
SMALL                                                                       
MULLIKEN                                                                    
                                                                            
@<TRIPOS>ATOM                                                               
      1   C       29.1511 43.3852 63.1037 C.ar 1  UNK   -0.2115 
      2  C1       29.2180 44.5091 62.2942 C.ar 1  UNK   -0.1951 
      3  C2       28.0741 45.1029 61.7874 C.ar 1  UNK   -0.1081 
      4  C3       26.8406 44.5165 62.1032 C.ar 1  UNK   -1.4464 
      5  C4       26.7366 43.3385 62.9318 C.ar 1  UNK   -0.0719 
      6  C5       27.9373 42.7889 63.4364 C.ar 1  UNK   -0.1146 
      7   S       25.2649 45.0288 61.6233  S.3 1  UNK    3.0249 
      8  C6       24.4587 43.7319 62.4065  C.2 1  UNK   -1.5176 
      9  C7       25.3435 42.9169 63.0932  C.2 1  UNK    0.0925 
     10  C8       22.9862 43.6038 62.2843  C.2 1  UNK    0.4794 
     11   O       22.3424 42.6406 62.6930  O.2 1  UNK   -0.2750 
     12  O1       22.4379 44.6660 61.6410  O.3 1  UNK   -0.4172 
     13  C9       22.1775 45.8800 62.3401  C.3 1  UNK   -0.1307 
     14  O2       24.9817 41.8213 63.8385  O.3 1  UNK   -0.2062 
     15 C10       25.3387 41.8581 65.2262  C.3 1  UNK   -0.0094 
     16 C11       24.1450 42.0906 66.1618  C.3 1  UNK   -0.2743 
     17 C12       24.5617 41.9577 67.6394  C.3 1  UNK   -0.1507 
     18   N       25.2281 40.6901 67.8927  N.3 1  UNK   -0.4018 
     19 C13       26.3979 40.4610 67.0653  C.3 1  UNK   -0.1505 
     20 C14       25.9701 40.5110 65.5921  C.3 1  UNK   -0.2708 
     21 C15       22.0971 47.0616 61.3431  C.3 1  UNK   -0.1216 
     22  O3       22.3902 48.3333 61.9425  O.3 1  UNK   -0.2467 
     23 C16       23.5953 48.5075 62.5924 C.ar 1  UNK    0.0911 
     24 C17       23.6141 49.1330 63.8312 C.ar 1  UNK   -0.1949 
     25 C18       24.8241 49.3086 64.5071 C.ar 1  UNK   -0.1491 
     26 C19       26.0067 48.8601 63.9385 C.ar 1  UNK   -0.1927 
     27 C20       25.9947 48.2402 62.6947 C.ar 1  UNK   -0.1831 
     28 C21       24.7886 48.0710 62.0181 C.ar 1  UNK   -0.3365 
     29   H       30.0676 42.9603 63.4892    H 1  UNK    0.1719 
     30  H1       30.1809 44.9393 62.0644    H 1  UNK    0.1644 
     31  H2       28.1392 45.9862 61.1706    H 1  UNK    0.1335 
     32  H3       27.9243 41.9224 64.0709    H 1  UNK    0.1837 
     33  H4       21.2488 45.7956 62.9060    H 1  UNK    0.1854 
     34  H5       22.9669 46.0594 63.0692    H 1  UNK    0.1030 
     35  H6       26.0682 42.6465 65.4249    H 1  UNK    0.1340 
     36  H7       23.3797 41.3435 65.9530    H 1  UNK    0.1668 
     37  H8       23.7081 43.0747 65.9883    H 1  UNK    0.1305 
     38  H9       25.2190 42.7719 67.9396    H 1  UNK    0.0849 
     39 H10       23.6834 41.9687 68.2842    H 1  UNK    0.1399 
     40 H11       25.4794 40.6414 68.8739    H 1  UNK    0.1986 
     41 H12       27.1601 41.2097 67.2881    H 1  UNK    0.0880 
     42 H13       26.8247 39.4893 67.3115    H 1  UNK    0.1438 
     43 H14       25.2864 39.6848 65.3655    H 1  UNK    0.1662 
     44 H15       26.8232 40.3723 64.9717    H 1  UNK    0.1364 
     45 H16       22.7529 46.9019 60.4892    H 1  UNK    0.1061 
     46 H17       21.0918 47.1100 60.9269    H 1  UNK    0.2140 
     47 H18       22.6931 49.4794 64.2649    H 1  UNK    0.2311 
     48 H19       24.8343 49.7941 65.4714    H 1  UNK    0.2209 
     49 H20       26.9444 48.9961 64.4635    H 1  UNK    0.2222 
     50 H21       26.9176 47.9008 62.2526    H 1  UNK    0.2132 
     51 H22       24.7829 47.6013 61.0472    H 1  UNK    0.1501 
@<TRIPOS>BOND                                                              
     1      1      2     ar 
     2      1      6     ar 
     3      1     29      1 
     4      2      3     ar 
     5      2     30      1 
     6      3      4     ar 
     7      3     31      1 
     8      4      5     ar 
     9      4      7      1 
    10      5      6     ar 
    11      5      9      1 
    12      6     32      1 
    13      7      8      1 
    14      8      9      2 
    15      8     10      1 
    16      9     14      1 
    17     10     11      2 
    18     10     12      1 
    19     12     13      1 
    20     13     21      1 
    21     13     33      1 
    22     13     34      1 
    23     14     15      1 
    24     15     16      1 
    25     15     20      1 
    26     15     35      1 
    27     16     17      1 
    28     16     36      1 
    29     16     37      1 
    30     17     18      1 
    31     17     38      1 
    32     17     39      1 
    33     18     19      1 
    34     18     40      1 
    35     19     20      1 
    36     19     41      1 
    37     19     42      1 
    38     20     43      1 
    39     20     44      1 
    40     21     22      1 
    41     21     45      1 
    42     21     46      1 
    43     22     23      1 
    44     23     24     ar 
    45     23     28     ar 
    46     24     25     ar 
    47     24     47      1 
    48     25     26     ar 
    49     25     48      1 
    50     26     27     ar 
    51     26     49      1 
    52     27     28     ar 
    53     27     50      1 
    54     28     51      1 
