@<TRIPOS>MOLECULE
*****
 58  61 0 0 0 
SMALL                                                                       
MULLIKEN                                                                    
                                                                            
@<TRIPOS>ATOM                                                               
      1   C       30.4061 44.6054 64.1286 C.ar 1  UNK   -0.1744 
      2  C1       30.3030 45.8450 63.3984 C.ar 1  UNK   -0.2228 
      3  C2       29.1607 46.1919 62.7646 C.ar 1  UNK   -0.0145 
      4  C3       27.9968 45.3533 62.7830 C.ar 1  UNK   -2.0029 
      5  C4       28.1257 44.0755 63.5559 C.ar 1  UNK   -0.0320 
      6  C5       29.3563 43.7530 64.2053 C.ar 1  UNK   -0.1373 
      7   S       26.6726 45.4356 62.2088  S.3 1  UNK    3.8135 
      8  C6       25.9770 44.2161 62.6672  C.2 1  UNK   -1.9416 
      9  C7       26.9250 43.4024 63.4795  C.2 1  UNK    0.0916 
     10  C8       24.6387 43.7709 62.4304  C.2 1  UNK    0.5418 
     11   O       23.8994 42.9543 62.9690  O.2 1  UNK   -0.3620 
     12  O1       24.0932 44.4891 61.3576  O.3 1  UNK   -0.4140 
     13  C9       22.6749 44.4630 61.2032  C.3 1  UNK   -0.0828 
     14  H1       31.3643 44.3776 64.6173    H 1  UNK    0.1777 
     15  O2       26.6483 42.1423 63.9162  O.3 1  UNK   -0.2072 
     16 C11       26.4676 42.0378 65.3500  C.3 1  UNK   -0.0137 
     17 C12       24.9812 42.0857 65.6709  C.3 1  UNK   -0.2761 
     18 C13       24.7369 41.7424 67.1371  C.3 1  UNK   -0.1492 
     19   N       25.3573 40.4990 67.5522  N.3 1  UNK   -0.3919 
     20 C14       26.7640 40.3985 67.2165  C.3 1  UNK   -0.1478 
     21 C15       27.0595 40.6905 65.7475  C.3 1  UNK   -0.2625 
     22  H2       31.1873 46.4974 63.3744    H 1  UNK    0.1765 
     23  H3       29.0896 47.1415 62.2101    H 1  UNK    0.1439 
     24  H4       29.4080 42.7992 64.7522    H 1  UNK    0.1895 
     25  H5       22.4142 43.5817 60.5601    H 1  UNK    0.1479 
     26  H6       22.1780 44.3516 62.2026    H 1  UNK    0.1601 
     27  H7       27.0144 42.8715 65.8681    H 1  UNK    0.1373 
     28  H8       24.4381 41.3722 64.9970    H 1  UNK    0.1817 
     29  H9       24.5780 43.1076 65.4546    H 1  UNK    0.1460 
     30 H10       25.0867 42.6156 67.7660    H 1  UNK    0.0785 
     31 H11       23.6281 41.6305 67.3034    H 1  UNK    0.1387 
     32 C32       22.2627 45.7616 60.5181  C.3 1  UNK   -0.2413 
     33 C33       22.6693 46.9725 61.2847 C.ar 1  UNK    0.0061 
     34 C34       21.7179 47.7561 61.9475 C.ar 1  UNK   -0.2815 
     35 C35       22.1356 48.8802 62.6702 C.ar 1  UNK    0.1320 
     36 C36       23.4969 49.2304 62.7650 C.ar 1  UNK   -0.2738 
     37 C37       24.4240 48.4303 62.0998 C.ar 1  UNK    0.0915 
     38 C38       24.0198 47.3204 61.3392 C.ar 1  UNK   -0.2629 
     39 O39       21.2859 49.7285 63.3480  O.3 1  UNK   -0.2484 
     40 C40       19.9003 49.3998 63.3118  C.3 1  UNK   -0.2088 
     41 O41       25.7960 48.6121 62.1600  O.3 1  UNK   -0.3065 
     42 C42       26.2434 49.8333 62.7447  C.3 1  UNK   -0.2052 
     43 H12       25.2351 40.3716 68.5396    H 1  UNK    0.2071 
     44 H13       27.3988 41.0923 67.8457    H 1  UNK    0.0825 
     45 H14       27.0867 39.3440 67.4478    H 1  UNK    0.1380 
     46 H15       26.6257 39.8907 65.0935    H 1  UNK    0.1663 
     47 H16       28.1677 40.7012 65.5897    H 1  UNK    0.1354 
     48 H17       22.7311 45.8025 59.4980    H 1  UNK    0.1575 
     49 H18       21.1487 45.7362 60.3845    H 1  UNK    0.1528 
     50 H19       20.6556 47.4805 61.8960    H 1  UNK    0.2103 
     51 H20       23.7893 50.1100 63.3529    H 1  UNK    0.2286 
     52 H21       24.7637 46.7271 60.7898    H 1  UNK    0.1778 
     53 H22       19.4283 50.2091 63.9251    H 1  UNK    0.1657 
     54 H23       19.7210 48.3986 63.7733    H 1  UNK    0.1276 
     55 H24       19.5177 49.4250 62.2627    H 1  UNK    0.1246 
     56 H25       27.3522 49.8060 62.5922    H 1  UNK    0.1627 
     57 H26       25.9937 49.8526 63.8335    H 1  UNK    0.1324 
     58 H27       25.7907 50.7092 62.2207    H 1  UNK    0.1376 
@<TRIPOS>BOND                                                              
     1      1      2     ar 
     2      1      6     ar 
     3      1     14      1 
     4      2      3     ar 
     5      2     22      1 
     6      3      4     ar 
     7      3     23      1 
     8      4      5     ar 
     9      4      7      1 
    10      5      6     ar 
    11      5      9      1 
    12      6     24      1 
    13      7      8      1 
    14      8      9      2 
    15      8     10      1 
    16      9     15      1 
    17     10     11      2 
    18     10     12      1 
    19     12     13      1 
    20     13     32      1 
    21     13     25      1 
    22     13     26      1 
    23     15     16      1 
    24     16     17      1 
    25     16     21      1 
    26     16     27      1 
    27     17     18      1 
    28     17     28      1 
    29     17     29      1 
    30     18     19      1 
    31     18     30      1 
    32     18     31      1 
    33     19     20      1 
    34     19     43      1 
    35     20     21      1 
    36     20     44      1 
    37     20     45      1 
    38     21     46      1 
    39     21     47      1 
    40     32     33      1 
    41     32     48      1 
    42     32     49      1 
    43     33     34     ar 
    44     33     38     ar 
    45     34     35     ar 
    46     34     50      1 
    47     35     36     ar 
    48     35     39      1 
    49     36     37     ar 
    50     36     51      1 
    51     37     38     ar 
    52     37     41      1 
    53     38     52      1 
    54     39     40      1 
    55     40     53      1 
    56     40     54      1 
    57     40     55      1 
    58     41     42      1 
    59     42     56      1 
    60     42     57      1 
    61     42     58      1 
