#	Name:			2_04c
#	Creating user name:	Mariana
#	Creation time:		Wed Jan 11 14:31:42 2017

#	Modifying user name:	Mariana
#	Modification time:	Wed Jan 11 14:31:42 2017

@<TRIPOS>MOLECULE
2_04c
   58    61     1     0     0
SMALL
NO_CHARGES


@<TRIPOS>ATOM
      1 C          30.8245   43.9586   63.1776 C.ar      1 UNN         0.0000 
      2 C1         30.7860   45.0183   62.2928 C.ar      1 UNN         0.0000 
      3 C2         29.5985   45.4420   61.7277 C.ar      1 UNN         0.0000 
      4 C3         28.4263   44.7600   62.0732 C.ar      1 UNN         0.0000 
      5 C4         28.4274   43.6235   62.9788 C.ar      1 UNN         0.0000 
      6 C5         29.6699   43.2335   63.5287 C.ar      1 UNN         0.0000 
      7 S          26.8253   45.0868   61.5455 S.3       1 UNN         0.0000 
      8 C6         26.1303   43.7637   62.4171 C.2       1 UNN         0.0000 
      9 C7         27.0825   43.0695   63.1520 C.2       1 UNN         0.0000 
     10 C8         24.6820   43.5102   62.2931 C.2       1 UNN         0.0000 
     11 O          24.0937   42.5493   62.7856 O.2       1 UNN         0.0000 
     12 O1         24.1057   44.4618   61.5603 O.3       1 UNN         0.0000 
     13 C9         22.7246   44.5624   61.2971 C.3       1 UNN         0.0000 
     14 H1         31.7738   43.6670   63.6019 H         1 UNN         0.0000 
     15 O2         26.8315   41.9627   63.9365 O.3       1 UNN         0.0000 
     16 C11        26.4958   42.1709   65.3184 C.3       1 UNN         0.0000 
     17 C12        24.9831   42.0033   65.5973 C.3       1 UNN         0.0000 
     18 C13        24.6386   42.1010   67.0930 C.3       1 UNN         0.0000 
     19 N          25.3866   41.1127   67.8502 N.3       1 UNN         0.0000 
     20 C14        26.8255   41.2876   67.7019 C.3       1 UNN         0.0000 
     21 C15        27.2704   41.1892   66.2249 C.3       1 UNN         0.0000 
     22 H2         31.7020   45.5348   62.0460 H         1 UNN         0.0000 
     23 H3         29.5794   46.2813   61.0473 H         1 UNN         0.0000 
     24 H4         29.7369   42.3990   64.2121 H         1 UNN         0.0000 
     25 H5         22.4044   43.7190   60.6931 H         1 UNN         0.0000 
     26 H6         22.1341   44.5537   62.2149 H         1 UNN         0.0000 
     27 H7         26.7906   43.1723   65.6054 H         1 UNN         0.0000 
     28 H8         24.6322   41.0511   65.1955 H         1 UNN         0.0000 
     29 H9         24.4072   42.7723   65.1057 H         1 UNN         0.0000 
     30 H10        24.8643   43.0968   67.4777 H         1 UNN         0.0000 
     31 H11        23.5733   41.9304   67.2509 H         1 UNN         0.0000 
     32 C32        22.5900   45.9036   60.5481 C.3       1 UNN         0.0000 
     33 C33        22.7419   47.0706   61.5085 C.ar      1 UNN         0.0000 
     34 C34        21.6317   47.8281   61.8555 C.ar      1 UNN         0.0000 
     35 C35        21.7610   48.8888   62.7581 C.ar      1 UNN         0.0000 
     36 C36        23.0041   49.1691   63.3255 C.ar      1 UNN         0.0000 
     37 C37        24.1283   48.4113   62.9702 C.ar      1 UNN         0.0000 
     38 C38        23.9924   47.3739   62.0554 C.ar      1 UNN         0.0000 
     39 O39        20.6722   49.6587   63.0952 O.3       1 UNN         0.0000 
     40 C40        19.6865   49.8571   62.0821 C.3       1 UNN         0.0000 
     41 O41        25.3754   48.6749   63.5117 O.3       1 UNN         0.0000 
     42 C42        25.5081   49.4994   64.6642 C.3       1 UNN         0.0000 
     43 H12        25.1365   41.1607   68.8315 H         1 UNN         0.0000 
     44 H13        27.1228   42.2423   68.1368 H         1 UNN         0.0000 
     45 H14        27.2819   40.5008   68.2928 H         1 UNN         0.0000 
     46 H15        27.1076   40.1639   65.8934 H         1 UNN         0.0000 
     47 H16        28.3428   41.3717   66.1486 H         1 UNN         0.0000 
     48 H17        23.3264   45.9837   59.7473 H         1 UNN         0.0000 
     49 H18        21.6240   45.9724   60.0537 H         1 UNN         0.0000 
     50 H19        20.6685   47.5941   61.4278 H         1 UNN         0.0000 
     51 H20        23.0945   49.9723   64.0305 H         1 UNN         0.0000 
     52 H21        24.8521   46.7955   61.7805 H         1 UNN         0.0000 
     53 H22        19.1511   50.7721   62.2922 H         1 UNN         0.0000 
     54 H23        18.9624   49.0434   62.0492 H         1 UNN         0.0000 
     55 H24        20.1226   49.9714   61.0876 H         1 UNN         0.0000 
     56 H25        26.5342   49.4402   65.0254 H         1 UNN         0.0000 
     57 H26        24.8571   49.1722   65.4776 H         1 UNN         0.0000 
     58 H27        25.3063   50.5432   64.4299 H         1 UNN         0.0000 
@<TRIPOS>BOND
     1    1    2 ar   
     2    1    6 ar   
     3    1   14 1    
     4    2    3 ar   
     5    2   22 1    
     6    3    4 ar   
     7    3   23 1    
     8    4    5 ar   
     9    4    7 1    
    10    5    6 ar   
    11    5    9 1    
    12    6   24 1    
    13    7    8 1    
    14    8    9 2    
    15    8   10 1    
    16    9   15 1    
    17   10   11 2    
    18   10   12 1    
    19   12   13 1    
    20   13   32 1    
    21   13   25 1    
    22   13   26 1    
    23   15   16 1    
    24   16   17 1    
    25   16   21 1    
    26   16   27 1    
    27   17   18 1    
    28   17   28 1    
    29   17   29 1    
    30   18   19 1    
    31   18   30 1    
    32   18   31 1    
    33   19   20 1    
    34   19   43 1    
    35   20   21 1    
    36   20   44 1    
    37   20   45 1    
    38   21   46 1    
    39   21   47 1    
    40   32   33 1    
    41   32   48 1    
    42   32   49 1    
    43   33   34 ar   
    44   33   38 ar   
    45   34   35 ar   
    46   34   50 1    
    47   35   36 ar   
    48   35   39 1    
    49   36   37 ar   
    50   36   51 1    
    51   37   38 ar   
    52   37   41 1    
    53   38   52 1    
    54   39   40 1    
    55   40   53 1    
    56   40   54 1    
    57   40   55 1    
    58   41   42 1    
    59   42   56 1    
    60   42   57 1    
    61   42   58 1    
@<TRIPOS>SUBSTRUCTURE
     1 UNN         1 GROUP             0 ****  ****    0 ROOT 
