@<TRIPOS>MOLECULE
*****
 53  56 0 0 0 
SMALL                                                                       
CHELPG                                                                    
                                                                            
@<TRIPOS>ATOM                                                               
      1   C       21.9814 40.1098 63.5461 C.ar 1  UNK  -66.9653 
      2  C1       21.0634 41.0323 63.0926 C.ar 1  UNK    9.2607 
      3  C2       21.4504 42.2877 62.6595 C.ar 1  UNK   35.1620 
      4  C3       22.8129 42.5953 62.6885 C.ar 1  UNK  -23.2302 
      5  C4       23.7999 41.6425 63.1464 C.ar 1  UNK  -29.9129 
      6  C5       23.3442 40.3776 63.5754 C.ar 1  UNK   83.8149 
      7   S       23.5897 44.0743 62.2229  S.3 1  UNK  -20.4446 
      8  C6       25.1712 43.4757 62.5940  C.2 1  UNK   82.6852 
      9  C7       25.1346 42.1848 63.0874  C.2 1  UNK  -28.6423 
     10  C8       26.3442 44.3437 62.3836  C.2 1  UNK  -35.0657 
     11   O       27.5066 44.0108 62.6194  O.2 1  UNK   11.1552 
     12  O1       25.9718 45.5431 61.9105  O.3 1  UNK   43.6477 
     13  C9       26.7538 46.7076 62.1180  C.3 1  UNK  -185.7309 
     14  O2       26.2225 41.4631 63.4828  O.3 1  UNK   29.2253 
     15 C15       26.4234 41.3080 64.8962  C.3 1  UNK  -126.3276 
     16 C16       27.7810 41.9746 65.2151  C.3 1  UNK  -14.0258 
     17 C17       28.1487 41.8687 66.6979  C.3 1  UNK  -164.7150 
     18 N18       27.0765 42.4505 67.4930  N.3 1  UNK   39.3681 
     19 C19       25.8286 41.7089 67.3651  C.3 1  UNK  -136.9371 
     20 C20       25.3325 41.7619 65.9112  C.3 1  UNK  109.2177 
     21  H1       21.6297 39.1607 63.8926    H 1  UNK   29.3008 
     22  H2       20.0241 40.7705 63.0833    H 1  UNK   15.1677 
     23  H3       20.7208 43.0033 62.3118    H 1  UNK  -22.6297 
     24  H4       24.0366 39.6307 63.9342    H 1  UNK  -19.9565 
     25  H5       27.2824 46.6681 63.0726    H 1  UNK   53.7952 
     26  H6       27.4991 46.8086 61.3285    H 1  UNK   69.4561 
     27  H7       26.4882 40.2303 65.0352    H 1  UNK   40.3956 
     28  H8       27.7342 43.0299 64.9504    H 1  UNK   -1.6999 
     29 C29       25.7726 47.8907 62.1148  C.3 1  UNK  -40.1357 
     30 C30       24.6357 47.7752 63.1666  C.3 1  UNK  -102.0200 
     31 C31       23.2626 48.2196 62.6740 C.ar 1  UNK  -49.0710 
     32 C32       22.7221 47.6648 61.5097 C.ar 1  UNK   23.4485 
     33 C33       21.4665 48.0687 61.0650 C.ar 1  UNK  -45.9428 
     34 C34       20.7483 49.0228 61.7823 C.ar 1  UNK   19.1415 
     35 C35       21.2810 49.5723 62.9464 C.ar 1  UNK  -23.1174 
     36 C36       22.5383 49.1722 63.3919 C.ar 1  UNK   51.3740 
     37  H9       28.5879 41.5725 64.6064    H 1  UNK   35.2655 
     38 H10       28.3129 40.8317 66.9941    H 1  UNK   56.2274 
     39 H11       29.0728 42.4103 66.9006    H 1  UNK   65.3715 
     40 H12       27.3465 42.4800 68.4649    H 1  UNK   20.2743 
     41 H13       25.9803 40.6789 67.6939    H 1  UNK   43.6430 
     42 H14       25.0880 42.1467 68.0354    H 1  UNK   48.3129 
     43 H15       25.0035 42.7728 65.6888    H 1  UNK  -21.4121 
     44 H16       24.4478 41.1325 65.8410    H 1  UNK  -46.7002 
     45 H17       26.3252 48.8091 62.2926    H 1  UNK   47.1889 
     46 H18       25.3692 47.9724 61.1053    H 1  UNK   37.0894 
     47 H19       24.5049 46.7447 63.4927    H 1  UNK   26.0597 
     48 H20       24.9199 48.3224 64.0671    H 1  UNK   37.5932 
     49 H21       23.2770 46.9231 60.9533    H 1  UNK   -6.0735 
     50 H22       21.0493 47.6423 60.1650    H 1  UNK   24.1793 
     51 H23       19.7740 49.3360 61.4367    H 1  UNK   11.6638 
     52 H24       20.7208 50.3099 63.5010    H 1  UNK   16.4428 
     53 H25       22.9511 49.5988 64.2928    H 1  UNK   -4.1718 
@<TRIPOS>BOND                                                              
     1      1      2     ar 
     2      1      6     ar 
     3      1     21      1 
     4      2      3     ar 
     5      2     22      1 
     6      3      4     ar 
     7      3     23      1 
     8      4      5     ar 
     9      4      7      1 
    10      5      6     ar 
    11      5      9      1 
    12      6     24      1 
    13      7      8      1 
    14      8      9      2 
    15      8     10      1 
    16      9     14      1 
    17     10     11      2 
    18     10     12      1 
    19     12     13      1 
    20     13     29      1 
    21     13     25      1 
    22     13     26      1 
    23     14     15      1 
    24     15     16      1 
    25     15     20      1 
    26     15     27      1 
    27     16     17      1 
    28     16     28      1 
    29     16     37      1 
    30     17     18      1 
    31     17     38      1 
    32     17     39      1 
    33     18     19      1 
    34     18     40      1 
    35     19     20      1 
    36     19     41      1 
    37     19     42      1 
    38     20     43      1 
    39     20     44      1 
    40     29     30      1 
    41     29     45      1 
    42     29     46      1 
    43     30     31      1 
    44     30     47      1 
    45     30     48      1 
    46     31     32     ar 
    47     31     36     ar 
    48     32     33     ar 
    49     32     49      1 
    50     33     34     ar 
    51     33     50      1 
    52     34     35     ar 
    53     34     51      1 
    54     35     36     ar 
    55     35     52      1 
    56     36     53      1 
