@<TRIPOS>MOLECULE
*****
 54  57 0 0 0 
SMALL                                                                       
MULLIKEN                                                                    
                                                                            
@<TRIPOS>ATOM                                                               
      1   C       21.8983 39.9725 63.5830 C.ar 1  UNK   -0.2101 
      2  C1       20.9231 40.8215 63.1027 C.ar 1  UNK   -0.1998 
      3  C2       21.2305 42.0975 62.6653 C.ar 1  UNK   -0.1026 
      4  C3       22.5753 42.4923 62.6920 C.ar 1  UNK   -1.4330 
      5  C4       23.6228 41.6077 63.1597 C.ar 1  UNK   -0.0607 
      6  C5       23.2441 40.3278 63.6125 C.ar 1  UNK   -0.1195 
      7   S       23.2592 44.0119 62.2064  S.3 1  UNK    2.9953 
      8  C6       24.8797 43.5087 62.5570  C.2 1  UNK   -1.4573 
      9  C7       24.9265 42.2263 63.0761  C.2 1  UNK    0.0973 
     10  C8       25.9985 44.4306 62.2961  C.2 1  UNK    0.4678 
     11   O       27.1790 44.1744 62.5402  O.2 1  UNK   -0.3503 
     12  O1       25.5557 45.5830 61.7539  O.3 1  UNK   -0.4237 
     13  C9       26.3775 46.7306 61.5968  C.3 1  UNK   -0.0828 
     14  H1       21.6068 39.0012 63.9458    H 1  UNK    0.1694 
     15  O2       26.0680 41.5715 63.4552  O.3 1  UNK   -0.2181 
     16 C11       26.3066 41.3662 64.8578  C.3 1  UNK    0.0074 
     17 C12       27.6650 42.0277 65.1797  C.3 1  UNK   -0.2725 
     18 C13       28.0425 41.9235 66.6660  C.3 1  UNK   -0.1585 
     19   N       26.9701 42.4610 67.4929  N.3 1  UNK   -0.3933 
     20 C14       25.7409 41.6911 67.3535  C.3 1  UNK   -0.1545 
     21 C15       25.2259 41.7669 65.9059  C.3 1  UNK   -0.2698 
     22  H2       19.8981 40.4849 63.0881    H 1  UNK    0.1641 
     23  H3       20.4572 42.7609 62.3066    H 1  UNK    0.1361 
     24  H4       23.9814 39.6299 63.9824    H 1  UNK    0.1848 
     25  H5       27.4257 46.5416 61.8368    H 1  UNK    0.1810 
     26  H6       26.3608 47.0393 60.5513    H 1  UNK    0.1406 
     27  H7       26.4237 40.2862 64.9386    H 1  UNK    0.1278 
     28  H8       27.6351 43.0788 64.8937    H 1  UNK    0.1701 
     29  H9       28.4606 41.5851 64.5812    H 1  UNK    0.1441 
     30 C30       25.8237 47.8554 62.4949  C.3 1  UNK   -0.2590 
     31 C31       24.3219 48.1395 62.3677 C.ar 1  UNK   -0.0505 
     32 C32       23.6690 47.9740 61.1376 C.ar 1  UNK   -0.2910 
     33 C33       22.2929 48.2399 61.0285 C.ar 1  UNK    0.0814 
     34 C34       21.5833 48.6660 62.1516 C.ar 1  UNK   -0.2244 
     35 C35       22.2340 48.8295 63.3740 C.ar 1  UNK   -0.1581 
     36 C36       23.5991 48.5686 63.4828 C.ar 1  UNK   -0.2292 
     37 O37       21.6246 48.0855 59.8259  O.3 1  UNK   -0.2665 
     38 C38       22.3435 47.8257 58.6228  C.3 1  UNK   -0.1950 
     39 H10       28.2402 40.8882 66.9496    H 1  UNK    0.0871 
     40 H11       28.9553 42.4857 66.8627    H 1  UNK    0.1382 
     41 H12       27.2516 42.4696 68.4622    H 1  UNK    0.1951 
     42 H13       25.9213 40.6570 67.6531    H 1  UNK    0.0905 
     43 H14       24.9938 42.0899 68.0412    H 1  UNK    0.1358 
     44 H15       24.8686 42.7739 65.7130    H 1  UNK    0.1448 
     45 H16       24.3535 41.1212 65.8361    H 1  UNK    0.1456 
     46 H17       26.0420 47.5894 63.5308    H 1  UNK    0.1585 
     47 H18       26.3754 48.7722 62.3018    H 1  UNK    0.1671 
     48 H19       24.2270 47.6442 60.2756    H 1  UNK    0.2069 
     49 H20       20.5254 48.8701 62.0745    H 1  UNK    0.2207 
     50 H21       21.6781 49.1597 64.2388    H 1  UNK    0.2123 
     51 H22       24.0968 48.6978 64.4330    H 1  UNK    0.2115 
     52 H23       21.6490 47.8265 57.7827    H 1  UNK    0.1721 
     53 H24       22.8250 46.8481 58.6509    H 1  UNK    0.0988 
     54 H25       23.0930 48.5947 58.4247    H 1  UNK    0.1283 
@<TRIPOS>BOND                                                              
     1      1      2     ar 
     2      1      6     ar 
     3      1     14      1 
     4      2      3     ar 
     5      2     22      1 
     6      3      4     ar 
     7      3     23      1 
     8      4      5     ar 
     9      4      7      1 
    10      5      6     ar 
    11      5      9      1 
    12      6     24      1 
    13      7      8      1 
    14      8      9      2 
    15      8     10      1 
    16      9     15      1 
    17     10     11      2 
    18     10     12      1 
    19     12     13      1 
    20     13     30      1 
    21     13     25      1 
    22     13     26      1 
    23     15     16      1 
    24     16     17      1 
    25     16     21      1 
    26     16     27      1 
    27     17     18      1 
    28     17     28      1 
    29     17     29      1 
    30     18     19      1 
    31     18     39      1 
    32     18     40      1 
    33     19     20      1 
    34     19     41      1 
    35     20     21      1 
    36     20     42      1 
    37     20     43      1 
    38     21     44      1 
    39     21     45      1 
    40     30     31      1 
    41     30     46      1 
    42     30     47      1 
    43     31     32     ar 
    44     31     36     ar 
    45     32     33     ar 
    46     32     48      1 
    47     33     34     ar 
    48     33     37      1 
    49     34     35     ar 
    50     34     49      1 
    51     35     36     ar 
    52     35     50      1 
    53     36     51      1 
    54     37     38      1 
    55     38     52      1 
    56     38     53      1 
    57     38     54      1 
