@<TRIPOS>MOLECULE
*****
 50  53 0 0 0 
SMALL                                                                       
LOEWDIN                                                                    
                                                                            
@<TRIPOS>ATOM                                                               
      1   C       21.9969 39.9726 63.8299 C.ar 1  UNK   -0.1500 
      2  C1       20.9799 40.7185 63.2601 C.ar 1  UNK   -0.1455 
      3  C2       21.2244 41.9560 62.6921 C.ar 1  UNK   -0.0691 
      4  C3       22.5410 42.4303 62.6927 C.ar 1  UNK   -1.2233 
      5  C4       23.6260 41.6705 63.2790 C.ar 1  UNK   -0.0511 
      6  C5       23.3179 40.4117 63.8446 C.ar 1  UNK   -0.0638 
      7   S       23.1433 43.9375 62.0635  S.3 1  UNK    2.6526 
      8  C6       24.7698 43.6058 62.5550  C.2 1  UNK   -1.2630 
      9  C7       24.8830 42.3805 63.1963  C.2 1  UNK    0.0360 
     10  C8       25.8254 44.6009 62.2904  C.2 1  UNK    0.4011 
     11   O       27.0025 44.4695 62.6330  O.2 1  UNK   -0.3248 
     12  O1       25.3284 45.6703 61.6238  O.3 1  UNK   -0.3710 
     13  C9       26.0669 46.8750 61.4560  C.3 1  UNK    0.0129 
     14  H1       21.7582 39.0191 64.2772    H 1  UNK    0.1122 
     15  O2       26.0389 41.8669 63.7266  O.3 1  UNK   -0.1763 
     16 C11       26.2930 42.3457 65.0583  C.3 1  UNK    0.0401 
     17 C12       25.1692 42.0376 66.0921  C.3 1  UNK   -0.1724 
     18 C13       25.5723 42.3259 67.5486  C.3 1  UNK   -0.0711 
     19   N       26.8218 41.6467 67.8731  N.3 1  UNK   -0.2961 
     20 C14       27.9142 42.1591 67.0497  C.3 1  UNK   -0.0693 
     21 C15       27.6456 41.8416 65.5684  C.3 1  UNK   -0.1516 
     22  H2       19.9717 40.3315 63.2708    H 1  UNK    0.1062 
     23  H3       20.4224 42.5344 62.2594    H 1  UNK    0.0822 
     24  H4       24.0868 39.8035 64.2970    H 1  UNK    0.1312 
     25  H5       27.1370 46.7307 61.6176    H 1  UNK    0.1147 
     26  H6       25.9692 47.2163 60.4252    H 1  UNK    0.0915 
     27  H7       26.4229 43.4138 64.9420    H 1  UNK    0.0690 
     28 C28       25.5243 47.9432 62.4302  C.3 1  UNK   -0.1523 
     29 C29       24.0241 48.2461 62.3487 C.ar 1  UNK   -0.0693 
     30 C30       23.3493 48.7068 63.4803 C.ar 1  UNK   -0.1295 
     31 C31       21.9894 48.9937 63.4112 C.ar 1  UNK   -0.1214 
     32 C32       21.3008 48.8210 62.2130 C.ar 1  UNK   -0.1373 
     33 C33       21.9672 48.3606 61.0814 C.ar 1  UNK   -0.1412 
     34 C34       23.3265 48.0726 61.1448 C.ar 1  UNK   -0.1510 
     35  H8       24.9019 40.9832 66.0288    H 1  UNK    0.1005 
     36  H9       24.2655 42.6026 65.8627    H 1  UNK    0.0817 
     37 H10       25.6812 43.3976 67.7209    H 1  UNK    0.0372 
     38 H11       24.7975 41.9737 68.2310    H 1  UNK    0.0830 
     39 H12       27.0285 41.7746 68.8524    H 1  UNK    0.1442 
     40 H13       28.0357 43.2310 67.2129    H 1  UNK    0.0427 
     41 H14       28.8427 41.6822 67.3627    H 1  UNK    0.0848 
     42 H15       27.6184 40.7724 65.4929    H 1  UNK    0.0926 
     43 H16       28.4610 42.1971 64.9377    H 1  UNK    0.0978 
     44 H17       25.7587 47.6182 63.4456    H 1  UNK    0.0995 
     45 H18       26.0618 48.8793 62.2923    H 1  UNK    0.1076 
     46 H19       23.8821 48.8434 64.4099    H 1  UNK    0.1404 
     47 H20       21.4677 49.3512 64.2858    H 1  UNK    0.1387 
     48 H21       20.2452 49.0452 62.1622    H 1  UNK    0.1354 
     49 H22       21.4298 48.2281 60.1542    H 1  UNK    0.1314 
     50 H23       23.8403 47.7191 60.2638    H 1  UNK    0.1333 
@<TRIPOS>BOND                                                              
     1      1      2     ar 
     2      1      6     ar 
     3      1     14      1 
     4      2      3     ar 
     5      2     22      1 
     6      3      4     ar 
     7      3     23      1 
     8      4      5     ar 
     9      4      7      1 
    10      5      6     ar 
    11      5      9      1 
    12      6     24      1 
    13      7      8      1 
    14      8      9      2 
    15      8     10      1 
    16      9     15      1 
    17     10     11      2 
    18     10     12      1 
    19     12     13      1 
    20     13     28      1 
    21     13     25      1 
    22     13     26      1 
    23     15     16      1 
    24     16     17      1 
    25     16     21      1 
    26     16     27      1 
    27     17     18      1 
    28     17     35      1 
    29     17     36      1 
    30     18     19      1 
    31     18     37      1 
    32     18     38      1 
    33     19     20      1 
    34     19     39      1 
    35     20     21      1 
    36     20     40      1 
    37     20     41      1 
    38     21     42      1 
    39     21     43      1 
    40     28     29      1 
    41     28     44      1 
    42     28     45      1 
    43     29     30     ar 
    44     29     34     ar 
    45     30     31     ar 
    46     30     46      1 
    47     31     32     ar 
    48     31     47      1 
    49     32     33     ar 
    50     32     48      1 
    51     33     34     ar 
    52     33     49      1 
    53     34     50      1 
