#	Name:			2_06b
#	Creating user name:	Mariana
#	Creation time:		Wed Jan 11 14:33:39 2017

#	Modifying user name:	Mariana
#	Modification time:	Wed Jan 11 14:33:39 2017

@<TRIPOS>MOLECULE
2_06b
   54    57     1     0     0
SMALL
NO_CHARGES


@<TRIPOS>ATOM
      1 C          22.7760   40.1765   63.4835 C.ar      1 UNN         0.0000 
      2 C1         21.7244   40.9884   63.0928 C.ar      1 UNN         0.0000 
      3 C2         21.9341   42.2990   62.6929 C.ar      1 UNN         0.0000 
      4 C3         23.2504   42.7794   62.6924 C.ar      1 UNN         0.0000 
      5 C4         24.3718   41.9410   63.0699 C.ar      1 UNN         0.0000 
      6 C5         24.0973   40.6194   63.4711 C.ar      1 UNN         0.0000 
      7 S          23.8163   44.3698   62.2769 S.3       1 UNN         0.0000 
      8 C6         25.4693   43.9667   62.5755 C.2       1 UNN         0.0000 
      9 C7         25.6289   42.6471   62.9657 C.2       1 UNN         0.0000 
     10 C8         26.5149   44.9796   62.4453 C.2       1 UNN         0.0000 
     11 O          27.7098   44.6895   62.4898 O.2       1 UNN         0.0000 
     12 N          26.0482   46.2341   62.3297 N.am      1 UNN         0.0000 
     13 C9         26.9244   47.4028   62.4296 C.3       1 UNN         0.0000 
     14 O1         26.8241   42.0440   63.2571 O.3       1 UNN         0.0000 
     15 C10        27.3895   42.4344   64.5072 C.3       1 UNN         0.0000 
     16 C11        26.8550   41.5704   65.6726 C.3       1 UNN         0.0000 
     17 C12        27.6866   41.7357   66.9598 C.3       1 UNN         0.0000 
     18 N1         29.1154   41.5726   66.6929 N.3       1 UNN         0.0000 
     19 C13        29.6097   42.5986   65.7850 C.3       1 UNN         0.0000 
     20 C14        28.9338   42.4595   64.4128 C.3       1 UNN         0.0000 
     21 C15        26.4441   48.3514   63.5490 C.3       1 UNN         0.0000 
     22 C16        25.2631   49.2469   63.1252 C.3       1 UNN         0.0000 
     23 C17        24.0153   48.4498   62.7823 C.ar      1 UNN         0.0000 
     24 C18        23.1517   48.0595   63.7959 C.ar      1 UNN         0.0000 
     25 C19        22.0238   47.3154   63.4952 C.ar      1 UNN         0.0000 
     26 C20        21.7411   46.9720   62.1744 C.ar      1 UNN         0.0000 
     27 C21        22.6013   47.3598   61.1535 C.ar      1 UNN         0.0000 
     28 C22        23.7431   48.0922   61.4548 C.ar      1 UNN         0.0000 
     29 H          22.5668   39.1724   63.8011 H         1 UNN         0.0000 
     30 H1         20.7181   40.5963   63.1117 H         1 UNN         0.0000 
     31 H2         21.1057   42.9292   62.4033 H         1 UNN         0.0000 
     32 H3         24.8934   39.9603   63.7731 H         1 UNN         0.0000 
     33 H4         25.0548   46.4015   62.2504 H         1 UNN         0.0000 
     34 H5         27.9754   47.1525   62.5884 H         1 UNN         0.0000 
     35 H6         26.8810   47.9364   61.4929 H         1 UNN         0.0000 
     36 H7         27.0916   43.4598   64.6929 H         1 UNN         0.0000 
     37 H8         26.8239   40.5181   65.3935 H         1 UNN         0.0000 
     38 H9         25.8176   41.8364   65.8791 H         1 UNN         0.0000 
     39 H10        27.5136   42.7153   67.4089 H         1 UNN         0.0000 
     40 H11        27.3786   40.9959   67.6995 H         1 UNN         0.0000 
     41 H12        29.6234   41.6287   67.5644 H         1 UNN         0.0000 
     42 H13        29.4274   43.5848   66.2149 H         1 UNN         0.0000 
     43 H14        30.6901   42.4921   65.6861 H         1 UNN         0.0000 
     44 H15        29.3095   41.5724   63.9168 H         1 UNN         0.0000 
     45 H16        29.2674   43.2803   63.7817 H         1 UNN         0.0000 
     46 H17        26.1825   47.7788   64.4406 H         1 UNN         0.0000 
     47 H18        27.2582   48.9947   63.8726 H         1 UNN         0.0000 
     48 H19        25.0262   49.9369   63.9367 H         1 UNN         0.0000 
     49 H20        25.5455   49.8874   62.2930 H         1 UNN         0.0000 
     50 H21        23.3635   48.3283   64.8188 H         1 UNN         0.0000 
     51 H22        21.3582   47.0061   64.2867 H         1 UNN         0.0000 
     52 H23        20.8562   46.3970   61.9444 H         1 UNN         0.0000 
     53 H24        22.3878   47.0848   60.1310 H         1 UNN         0.0000 
     54 H25        24.4210   48.3724   60.6650 H         1 UNN         0.0000 
@<TRIPOS>BOND
     1    1    2 ar   
     2    1    6 ar   
     3    1   29 1    
     4    2    3 ar   
     5    2   30 1    
     6    3    4 ar   
     7    3   31 1    
     8    4    5 ar   
     9    4    7 1    
    10    5    6 ar   
    11    5    9 1    
    12    6   32 1    
    13    7    8 1    
    14    8    9 2    
    15    8   10 1    
    16    9   14 1    
    17   10   11 2    
    18   10   12 am   BACKBONE|DICT|INTERRES
    19   12   13 1    
    20   12   33 1    
    21   13   21 1    
    22   13   34 1    
    23   13   35 1    
    24   14   15 1    
    25   15   16 1    
    26   15   20 1    
    27   15   36 1    
    28   16   17 1    
    29   16   37 1    
    30   16   38 1    
    31   17   18 1    
    32   17   39 1    
    33   17   40 1    
    34   18   19 1    
    35   18   41 1    
    36   19   20 1    
    37   19   42 1    
    38   19   43 1    
    39   20   44 1    
    40   20   45 1    
    41   21   22 1    
    42   21   46 1    
    43   21   47 1    
    44   22   23 1    
    45   22   48 1    
    46   22   49 1    
    47   23   24 ar   
    48   23   28 ar   
    49   24   25 ar   
    50   24   50 1    
    51   25   26 ar   
    52   25   51 1    
    53   26   27 ar   
    54   26   52 1    
    55   27   28 ar   
    56   27   53 1    
    57   28   54 1    
@<TRIPOS>SUBSTRUCTURE
     1 UNN         1 GROUP             0 ****  ****    0 ROOT 
