@<TRIPOS>MOLECULE
*****
 51  54 0 0 0 
SMALL                                                                       
CHELPG                                                                    
                                                                            
@<TRIPOS>ATOM                                                               
      1   C       22.4759 38.8912 63.1681 C.ar 1  UNK  -13.1130 
      2  C1       21.5540 39.2788 62.1288 C.ar 1  UNK  -14.0242 
      3  C2       21.7331 40.4164 61.4215 C.ar 1  UNK   63.5160 
      4  C3       22.8393 41.2964 61.6654 C.ar 1  UNK  -143.1034 
      5  C4       23.7817 40.8740 62.7543 C.ar 1  UNK   31.2128 
      6  C5       23.5495 39.6601 63.4697 C.ar 1  UNK   15.1045 
      7   S       23.3059 42.5406 61.0957  S.3 1  UNK  115.3815 
      8  C6       24.5001 42.8983 61.8570  C.2 1  UNK  -32.0178 
      9  C7       24.7757 41.8255 62.8538  C.2 1  UNK   29.1255 
     10  C8       25.3812 44.0426 61.7211  C.2 1  UNK  -27.3452 
     11   O       26.6105 44.0509 61.8494  O.2 1  UNK   30.4195 
     12   N       24.6634 45.2183 61.2934 N.am 1  UNK   -6.5181 
     13  C9       25.4557 46.3589 60.8906  C.3 1  UNK  -110.5478 
     14  O1       25.9015 41.7721 63.6196  O.3 1  UNK   11.7461 
     15 C10       25.6965 42.1686 64.9952  C.3 1  UNK  -228.0789 
     16 C11       26.9655 41.7456 65.7261  C.3 1  UNK   36.3045 
     17 C12       26.9302 42.2380 67.1706  C.3 1  UNK  -285.0481 
     18  N1       26.6787 43.6610 67.2897  N.3 1  UNK  101.1422 
     19 C13       25.5125 44.1183 66.5605  C.3 1  UNK  -156.2831 
     20 C14       25.4981 43.6734 65.1008  C.3 1  UNK  184.1358 
     21  H1       22.2778 37.9509 63.7024    H 1  UNK   17.2265 
     22  H2       20.7008 38.6144 61.9309    H 1  UNK   13.1871 
     23  H3       21.0247 40.7032 60.6278    H 1  UNK  -11.0159 
     24  H4       24.2715 39.3849 64.2530    H 1  UNK   -9.5310 
     25  H5       23.9838 45.4854 61.9829    H 1  UNK  -11.6010 
     26  H6       26.3364 45.9895 60.2925    H 1  UNK   53.6376 
     27  H7       24.8028 46.9869 60.2194    H 1  UNK   47.8725 
     28 C28       25.9886 47.2413 62.0245  C.3 1  UNK  -170.4781 
     29 C29       24.8896 47.8249 62.8389 C.ar 1  UNK   71.0493 
     30 C30       24.4662 47.1940 64.0151 C.ar 1  UNK    1.1167 
     31 C31       23.4353 47.7438 64.7760 C.ar 1  UNK   16.0134 
     32 C32       22.8183 48.9267 64.3702 C.ar 1  UNK  -36.9000 
     33 C33       23.2371 49.5613 63.2006 C.ar 1  UNK   22.0545 
     34 C34       24.2676 49.0141 62.4385 C.ar 1  UNK  -39.1185 
     35  H8       24.8013 41.6238 65.4035    H 1  UNK   40.1380 
     36  H9       27.8550 42.1651 65.1886    H 1  UNK   29.4742 
     37 H10       27.0538 40.6300 65.7195    H 1  UNK   34.2775 
     38 H11       26.1617 41.6260 67.7315    H 1  UNK   86.3682 
     39 H12       27.9330 42.0381 67.6442    H 1  UNK   85.4631 
     40 H13       26.5943 43.9115 68.2573    H 1  UNK   18.5050 
     41 H14       24.5502 43.7700 67.0428    H 1  UNK   43.6859 
     42 H15       25.5189 45.2450 66.5959    H 1  UNK   14.6018 
     43 H16       26.3102 44.1870 64.5204    H 1  UNK  -28.9581 
     44 H17       24.5174 43.9581 64.6409    H 1  UNK  -27.5814 
     45 H18       26.6724 46.6298 62.6741    H 1  UNK   47.2711 
     46 H19       26.6011 48.0619 61.5656    H 1  UNK   64.5881 
     47 H20       24.9603 46.2658 64.3485    H 1  UNK  -13.0671 
     48 H21       23.1134 47.2451 65.7021    H 1  UNK   -5.5337 
     49 H22       22.0078 49.3611 64.9731    H 1  UNK   22.8199 
     50 H23       22.7570 50.4979 62.8811    H 1  UNK   14.0615 
     51 H24       24.5999 49.5194 61.5194    H 1  UNK    8.3644 
@<TRIPOS>BOND                                                              
     1      1      2     ar 
     2      1      6     ar 
     3      1     21      1 
     4      2      3     ar 
     5      2     22      1 
     6      3      4     ar 
     7      3     23      1 
     8      4      5     ar 
     9      4      7      1 
    10      5      6     ar 
    11      5      9      1 
    12      6     24      1 
    13      7      8      1 
    14      8      9      2 
    15      8     10      1 
    16      9     14      1 
    17     10     11      2 
    18     10     12     am 
    19     12     13      1 
    20     12     25      1 
    21     13     28      1 
    22     13     26      1 
    23     13     27      1 
    24     14     15      1 
    25     15     16      1 
    26     15     20      1 
    27     15     35      1 
    28     16     17      1 
    29     16     36      1 
    30     16     37      1 
    31     17     18      1 
    32     17     38      1 
    33     17     39      1 
    34     18     19      1 
    35     18     40      1 
    36     19     20      1 
    37     19     41      1 
    38     19     42      1 
    39     20     43      1 
    40     20     44      1 
    41     28     29      1 
    42     28     45      1 
    43     28     46      1 
    44     29     30     ar 
    45     29     34     ar 
    46     30     31     ar 
    47     30     47      1 
    48     31     32     ar 
    49     31     48      1 
    50     32     33     ar 
    51     32     49      1 
    52     33     34     ar 
    53     33     50      1 
    54     34     51      1 
