@<TRIPOS>MOLECULE
*****
 52  55 0 0 0 
SMALL                                                                       
CHELPG                                                                    
                                                                            
@<TRIPOS>ATOM                                                               
      1   C       29.3368 41.1639 61.9555 C.ar 1  UNK  -36.0485 
      2  C1       29.7561 42.0803 60.9236 C.ar 1  UNK    6.2194 
      3  C2       28.9615 43.0977 60.5239 C.ar 1  UNK   27.5993 
      4  C3       27.6672 43.3227 61.1013 C.ar 1  UNK  -83.9418 
      5  C4       27.2561 42.3597 62.1761 C.ar 1  UNK  -39.9102 
      6  C5       28.1318 41.2985 62.5593 C.ar 1  UNK   71.0283 
      7   S       26.6071 44.2812 60.8934  S.3 1  UNK   89.5155 
      8  C6       25.5636 43.9247 61.8630  C.2 1  UNK  -15.9061 
      9  C7       25.9986 42.7170 62.6169  C.2 1  UNK   48.9965 
     10  C8       24.2866 44.5590 62.0692  C.2 1  UNK  -47.4693 
     11   O       23.2932 44.1108 62.6522  O.2 1  UNK   31.6646 
     12   N       24.2553 45.8696 61.4273 N.am 1  UNK   -6.2610 
     13  C9       22.9624 46.3021 60.9457  C.3 1  UNK  -162.5423 
     14  O1       25.2134 42.0308 63.4934  O.3 1  UNK   17.1501 
     15 C10       25.4835 42.3281 64.8854  C.3 1  UNK  -186.4447 
     16 C11       24.4316 43.3017 65.3962  C.3 1  UNK  118.9040 
     17 C12       24.5381 43.4654 66.9094  C.3 1  UNK  -151.2629 
     18  N1       24.5287 42.2073 67.6292  N.3 1  UNK   93.8222 
     19 C13       25.4809 41.2325 67.1343  C.3 1  UNK  -244.7863 
     20 C14       25.3857 41.0006 65.6284  C.3 1  UNK   -0.8807 
     21  H1       30.0271 40.3538 62.2314    H 1  UNK   19.9368 
     22  H2       30.7456 41.9207 60.4719    H 1  UNK   12.3501 
     23  H3       29.2899 43.7914 59.7335    H 1  UNK   -4.4481 
     24  H4       27.7838 40.6113 63.3454    H 1  UNK  -33.2677 
     25  H5       24.6327 46.5581 62.0576    H 1  UNK   -1.5322 
     26  H6       23.1600 47.0632 60.1374    H 1  UNK   72.1954 
     27  H7       22.4251 45.4222 60.4927    H 1  UNK   66.4614 
     28  H8       26.5132 42.7618 64.9989    H 1  UNK   39.2495 
     29 C29       22.0188 46.9344 61.9763  C.3 1  UNK  -137.1714 
     30 O30       22.5773 48.1498 62.4725  O.3 1  UNK   17.6189 
     31 C31       23.2191 48.1303 63.6969 C.ar 1  UNK   17.9329 
     32 C32       23.5156 46.9854 64.4445 C.ar 1  UNK   33.1686 
     33 C33       24.1816 47.1229 65.6636 C.ar 1  UNK   29.0145 
     34 C34       24.5541 48.3799 66.1322 C.ar 1  UNK  -20.8434 
     35 C35       24.2565 49.5185 65.3792 C.ar 1  UNK   -2.5869 
     36 C36       23.5904 49.4072 64.1648 C.ar 1  UNK  -27.2741 
     37  H9       23.4154 42.9266 65.1049    H 1  UNK   -9.6102 
     38 H10       24.5664 44.3001 64.9052    H 1  UNK   -1.5292 
     39 H11       25.4675 44.0720 67.1320    H 1  UNK   36.8233 
     40 H12       23.6536 44.0619 67.2731    H 1  UNK   34.0776 
     41 H13       24.6886 42.3727 68.6056    H 1  UNK   15.3905 
     42 H14       26.5469 41.5233 67.3773    H 1  UNK   77.6858 
     43 H15       25.2669 40.2613 67.6642    H 1  UNK   76.5823 
     44 H16       24.4155 40.5039 65.3682    H 1  UNK   40.3694 
     45 H17       26.2166 40.3231 65.3066    H 1  UNK   30.1096 
     46 H18       21.0807 47.2717 61.4545    H 1  UNK   66.9792 
     47 H19       21.7531 46.2139 62.7900    H 1  UNK   51.4364 
     48 H20       23.2289 45.9778 64.1016    H 1  UNK  -46.2633 
     49 H21       24.4092 46.2197 66.2536    H 1  UNK  -35.8888 
     50 H22       25.0775 48.4788 67.0937    H 1  UNK   16.2440 
     51 H23       24.5469 50.5128 65.7505    H 1  UNK   19.2229 
     52 H24       23.3435 50.2940 63.5647    H 1  UNK   18.1203 
@<TRIPOS>BOND                                                              
     1      1      2     ar 
     2      1      6     ar 
     3      1     21      1 
     4      2      3     ar 
     5      2     22      1 
     6      3      4     ar 
     7      3     23      1 
     8      4      5     ar 
     9      4      7      1 
    10      5      6     ar 
    11      5      9      1 
    12      6     24      1 
    13      7      8      1 
    14      8      9      2 
    15      8     10      1 
    16      9     14      1 
    17     10     11      2 
    18     10     12     am 
    19     12     13      1 
    20     12     25      1 
    21     13     29      1 
    22     13     26      1 
    23     13     27      1 
    24     14     15      1 
    25     15     16      1 
    26     15     20      1 
    27     15     28      1 
    28     16     17      1 
    29     16     37      1 
    30     16     38      1 
    31     17     18      1 
    32     17     39      1 
    33     17     40      1 
    34     18     19      1 
    35     18     41      1 
    36     19     20      1 
    37     19     42      1 
    38     19     43      1 
    39     20     44      1 
    40     20     45      1 
    41     29     30      1 
    42     29     46      1 
    43     29     47      1 
    44     30     31      1 
    45     31     32     ar 
    46     31     36     ar 
    47     32     33     ar 
    48     32     48      1 
    49     33     34     ar 
    50     33     49      1 
    51     34     35     ar 
    52     34     50      1 
    53     35     36     ar 
    54     35     51      1 
    55     36     52      1 
