@<TRIPOS>MOLECULE
*****
 52  55 0 0 0 
SMALL                                                                       
CHELPG                                                                    
                                                                            
@<TRIPOS>ATOM                                                               
      1   C       29.1689 42.8391 63.3971 C.ar 1  UNK  -30.6460 
      2  C1       29.5217 43.9723 62.6928 C.ar 1  UNK   -1.3355 
      3  C2       28.5699 44.7842 62.1079 C.ar 1  UNK   26.2458 
      4  C3       27.2249 44.4309 62.2543 C.ar 1  UNK  -124.6525 
      5  C4       26.8106 43.2479 62.9871 C.ar 1  UNK   13.9470 
      6  C5       27.8403 42.4522 63.5572 C.ar 1  UNK   80.0423 
      7   S       25.8463 45.2571 61.6410  S.3 1  UNK  113.1865 
      8  C6       24.7150 44.1860 62.3650  C.2 1  UNK  -106.3672 
      9  C7       25.3317 43.1142 63.0028  C.2 1  UNK   82.2181 
     10  C8       23.2780 44.4731 62.2844  C.2 1  UNK   49.5645 
     11   O       22.4313 43.6778 62.6929  O.2 1  UNK    4.2469 
     12   N       22.9942 45.6954 61.7715 N.am 1  UNK   -9.7210 
     13  C9       21.6374 46.2608 61.7601  C.3 1  UNK  -84.4357 
     14  O1       24.6430 42.0768 63.6158  O.3 1  UNK   -1.5111 
     15 C10       25.1471 41.3582 64.7404  C.3 1  UNK  -175.8704 
     16 C11       25.6197 42.2289 65.9311  C.3 1  UNK   89.1985 
     17 C12       26.2037 41.3592 67.0573  C.3 1  UNK  -142.1638 
     18  N1       25.2239 40.3726 67.4928  N.3 1  UNK   75.2741 
     19 C13       24.7500 39.5044 66.4140  C.3 1  UNK  -196.2011 
     20 C14       24.1337 40.3237 65.2575  C.3 1  UNK  -63.7825 
     21  H1       29.9470 42.2334 63.8382    H 1  UNK   16.5581 
     22  H2       30.5659 44.2301 62.5967    H 1  UNK   18.2816 
     23  H3       28.8606 45.6684 61.5592    H 1  UNK   -0.6421 
     24  H4       27.6218 41.5728 64.1161    H 1  UNK  -45.5874 
     25  H5       23.7402 46.2798 61.4222    H 1  UNK  -26.3084 
     26  H6       21.3251 46.3657 60.7201    H 1  UNK   59.9934 
     27  H7       20.9130 45.6374 62.2929    H 1  UNK   44.8761 
     28  H8       25.9227 40.7164 64.3399    H 1  UNK   62.2820 
     29 C29       21.5799 47.6660 62.3918  C.3 1  UNK  -269.0621 
     30 O30       22.5832 48.5380 61.8620  O.3 1  UNK   81.3636 
     31 C31       23.7308 48.6409 62.6105 C.ar 1  UNK   -6.3890 
     32 C32       23.6857 49.1723 63.8929 C.ar 1  UNK  -17.2654 
     33 C33       24.8525 49.2642 64.6526 C.ar 1  UNK    6.0659 
     34 C34       26.0567 48.8246 64.1242 C.ar 1  UNK  -72.9051 
     35 C35       26.1019 48.3021 62.8394 C.ar 1  UNK   70.1019 
     36 C36       24.9386 48.2141 62.0825 C.ar 1  UNK   34.9206 
     37  H9       24.7765 42.8049 66.3152    H 1  UNK    5.1462 
     38 H10       26.3666 42.9578 65.6369    H 1  UNK  -45.9432 
     39 H11       27.1083 40.8473 66.7258    H 1  UNK   35.2885 
     40 H12       26.4839 41.9772 67.9106    H 1  UNK   49.8266 
     41 H13       25.6023 39.8143 68.2462    H 1  UNK   14.7414 
     42 H14       25.5884 38.9059 66.0599    H 1  UNK   65.5995 
     43 H15       24.0188 38.8018 66.8119    H 1  UNK   72.0024 
     44 H16       23.2241 40.8135 65.6015    H 1  UNK   43.9137 
     45 H17       23.8335 39.6534 64.4510    H 1  UNK   58.5324 
     46 H18       20.6141 48.1185 62.1661    H 1  UNK   97.5409 
     47 H19       21.6249 47.5813 63.4798    H 1  UNK   61.1552 
     48 H20       22.7466 49.5142 64.2928    H 1  UNK    9.6551 
     49 H21       24.8238 49.6754 65.6487    H 1  UNK   21.4199 
     50 H22       26.9604 48.8932 64.7100    H 1  UNK   25.8458 
     51 H23       27.0419 47.9665 62.4264    H 1  UNK  -45.6876 
     52 H24       24.9751 47.8121 61.0813    H 1  UNK  -22.5575 
@<TRIPOS>BOND                                                              
     1      1      2     ar 
     2      1      6     ar 
     3      1     21      1 
     4      2      3     ar 
     5      2     22      1 
     6      3      4     ar 
     7      3     23      1 
     8      4      5     ar 
     9      4      7      1 
    10      5      6     ar 
    11      5      9      1 
    12      6     24      1 
    13      7      8      1 
    14      8      9      2 
    15      8     10      1 
    16      9     14      1 
    17     10     11      2 
    18     10     12     am 
    19     12     13      1 
    20     12     25      1 
    21     13     29      1 
    22     13     26      1 
    23     13     27      1 
    24     14     15      1 
    25     15     16      1 
    26     15     20      1 
    27     15     28      1 
    28     16     17      1 
    29     16     37      1 
    30     16     38      1 
    31     17     18      1 
    32     17     39      1 
    33     17     40      1 
    34     18     19      1 
    35     18     41      1 
    36     19     20      1 
    37     19     42      1 
    38     19     43      1 
    39     20     44      1 
    40     20     45      1 
    41     29     30      1 
    42     29     46      1 
    43     29     47      1 
    44     30     31      1 
    45     31     32     ar 
    46     31     36     ar 
    47     32     33     ar 
    48     32     48      1 
    49     33     34     ar 
    50     33     49      1 
    51     34     35     ar 
    52     34     50      1 
    53     35     36     ar 
    54     35     51      1 
    55     36     52      1 
