@<TRIPOS>MOLECULE
*****
 51  54 0 0 0 
SMALL                                                                       
CHELPG                                                                    
                                                                            
@<TRIPOS>ATOM                                                               
      1   C       21.9029 39.9723 63.5720 C.ar 1  UNK  -98.9435 
      2  C1       20.9233 40.8165 63.1042 C.ar 1  UNK   55.2757 
      3  C2       21.2237 42.0870 62.6555 C.ar 1  UNK  -40.7402 
      4  C3       22.5630 42.4824 62.6637 C.ar 1  UNK   56.2650 
      5  C4       23.6187 41.6013 63.1260 C.ar 1  UNK  -93.6062 
      6  C5       23.2474 40.3249 63.5834 C.ar 1  UNK  124.6763 
      7   S       23.2291 43.9958 62.1631  S.3 1  UNK  -52.0555 
      8  C6       24.8525 43.5044 62.5214  C.2 1  UNK   71.9803 
      9  C7       24.9176 42.2240 63.0359  C.2 1  UNK   -2.7491 
     10  C8       25.9547 44.4219 62.2929  C.2 1  UNK  -17.5395 
     11   O       27.1168 44.1377 62.5885  O.2 1  UNK  -12.9725 
     12   N       25.5686 45.5920 61.7612 N.am 1  UNK   89.2234 
     13  C9       26.4611 46.7286 61.6173  C.3 1  UNK  -160.6576 
     14  O1       26.0649 41.5776 63.4153  O.3 1  UNK   33.0287 
     15 C10       26.2977 41.3679 64.8185  C.3 1  UNK  -140.6554 
     16 C11       27.6459 42.0394 65.1589  C.3 1  UNK  -36.4169 
     17 C12       28.0292 41.8744 66.6387  C.3 1  UNK  -183.0116 
     18  N1       26.9577 42.3720 67.4929  N.3 1  UNK   50.2177 
     19 C13       25.7219 41.6208 67.3157  C.3 1  UNK  -141.8300 
     20 C14       25.2149 41.7548 65.8694  C.3 1  UNK  121.6701 
     21  H1       21.6161 39.0022 63.9373    H 1  UNK   32.2166 
     22  H2       19.9000 40.4793 63.1085    H 1  UNK    7.2285 
     23  H3       20.4450 42.7476 62.3032    H 1  UNK    3.6238 
     24  H4       23.9886 39.6282 63.9474    H 1  UNK  -28.1327 
     25  H5       24.6020 45.7303 61.5023    H 1  UNK  -48.4012 
     26  H6       27.5005 46.5214 61.8828    H 1  UNK   61.9306 
     27  H7       26.4640 47.0195 60.5659    H 1  UNK   64.0791 
     28 C28       25.9061 47.8760 62.4911  C.3 1  UNK  -182.2019 
     29 C29       24.3970 48.1613 62.3881 C.ar 1  UNK  -63.5955 
     30 C30       23.6972 48.6092 63.5103 C.ar 1  UNK   56.8323 
     31 C31       22.3310 48.8653 63.4234 C.ar 1  UNK  -44.1190 
     32 C32       21.6617 48.6776 62.2159 C.ar 1  UNK    3.5334 
     33 C33       22.3542 48.2325 61.0924 C.ar 1  UNK  -71.1087 
     34 C34       23.7193 47.9732 61.1746 C.ar 1  UNK  140.0509 
     35  H8       26.4203 40.2880 64.8908    H 1  UNK   45.8828 
     36  H9       27.5906 43.1013 64.9232    H 1  UNK   16.1178 
     37 H10       28.4471 41.6464 64.5341    H 1  UNK   44.3984 
     38 H11       28.2313 40.8286 66.8767    H 1  UNK   61.2541 
     39 H12       28.9408 42.4311 66.8576    H 1  UNK   70.9075 
     40 H13       27.2410 42.3154 68.4598    H 1  UNK   18.1848 
     41 H14       25.8926 40.5748 67.5767    H 1  UNK   44.9345 
     42 H15       24.9753 41.9983 68.0156    H 1  UNK   47.9909 
     43 H16       24.8754 42.7733 65.7048    H 1  UNK  -24.3471 
     44 H17       24.3335 41.1255 65.7802    H 1  UNK  -49.5065 
     45 H18       26.1362 47.6395 63.5319    H 1  UNK   51.3510 
     46 H19       26.4479 48.7819 62.2743    H 1  UNK   88.6520 
     47 H20       24.2138 48.7559 64.4479    H 1  UNK   -4.4833 
     48 H21       21.7898 49.2101 64.2921    H 1  UNK   23.6076 
     49 H22       20.6022 48.8782 62.1508    H 1  UNK   18.4764 
     50 H23       21.8322 48.0886 60.1577    H 1  UNK   25.5386 
     51 H24       24.2528 47.6298 60.3008    H 1  UNK  -32.0551 
@<TRIPOS>BOND                                                              
     1      1      2     ar 
     2      1      6     ar 
     3      1     21      1 
     4      2      3     ar 
     5      2     22      1 
     6      3      4     ar 
     7      3     23      1 
     8      4      5     ar 
     9      4      7      1 
    10      5      6     ar 
    11      5      9      1 
    12      6     24      1 
    13      7      8      1 
    14      8      9      2 
    15      8     10      1 
    16      9     14      1 
    17     10     11      2 
    18     10     12     am 
    19     12     13      1 
    20     12     25      1 
    21     13     28      1 
    22     13     26      1 
    23     13     27      1 
    24     14     15      1 
    25     15     16      1 
    26     15     20      1 
    27     15     35      1 
    28     16     17      1 
    29     16     36      1 
    30     16     37      1 
    31     17     18      1 
    32     17     38      1 
    33     17     39      1 
    34     18     19      1 
    35     18     40      1 
    36     19     20      1 
    37     19     41      1 
    38     19     42      1 
    39     20     43      1 
    40     20     44      1 
    41     28     29      1 
    42     28     45      1 
    43     28     46      1 
    44     29     30     ar 
    45     29     34     ar 
    46     30     31     ar 
    47     30     47      1 
    48     31     32     ar 
    49     31     48      1 
    50     32     33     ar 
    51     32     49      1 
    52     33     34     ar 
    53     33     50      1 
    54     34     51      1 
