@<TRIPOS>MOLECULE
*****
 54  57 0 0 0 
SMALL                                                                       
MULLIKEN                                                                    
                                                                            
@<TRIPOS>ATOM                                                               
      1   C       23.1460 39.5506 62.3283 C.ar 1  UNK   -0.2206 
      2  C1       22.3093 40.1462 61.3148 C.ar 1  UNK   -0.1919 
      3  C2       22.5679 41.3792 60.8270 C.ar 1  UNK   -0.1152 
      4  C3       23.6785 42.1624 61.2895 C.ar 1  UNK   -1.4146 
      5  C4       24.5313 41.5219 62.3470 C.ar 1  UNK   -0.0537 
      6  C5       24.2187 40.2127 62.8234 C.ar 1  UNK   -0.1077 
      7   S       24.2119 43.4647 60.9801  S.3 1  UNK    2.9416 
      8  C6       25.3809 43.6327 61.8509  C.2 1  UNK   -1.5204 
      9  C7       25.5548 42.3934 62.6590  C.2 1  UNK    0.1070 
     10  C8       26.3055 44.7440 61.9115  C.2 1  UNK    0.4939 
     11   O       27.4900 44.7125 62.2684  O.2 1  UNK   -0.3610 
     12   N       25.7110 45.9560 61.3922 N.am 1  UNK   -0.5574 
     13  C9       26.6137 47.0472 61.0970  C.3 1  UNK   -0.0891 
     14  O1       26.6047 42.1002 63.4749  O.3 1  UNK   -0.2116 
     15 C10       26.7163 42.9486 64.6394  C.3 1  UNK    0.0135 
     16 C11       25.9052 42.3568 65.7843  C.3 1  UNK   -0.2788 
     17 C12       26.1910 43.1110 67.0803  C.3 1  UNK   -0.1546 
     18  N1       27.6035 43.1992 67.3932  N.3 1  UNK   -0.3801 
     19 C13       28.4209 43.7063 66.3079  C.3 1  UNK   -0.1591 
     20 C14       28.2005 42.9794 64.9842  C.3 1  UNK   -0.2540 
     21 C15       27.0339 47.9246 62.2753  C.3 1  UNK   -0.2942 
     22 C16       25.9187 48.8035 62.8050  C.3 1  UNK   -0.2331 
     23 C17       24.8964 48.0714 63.6026 C.ar 1  UNK   -0.0847 
     24 C18       25.2585 47.4003 64.7778 C.ar 1  UNK   -0.1904 
     25 C19       24.2964 46.7331 65.5336 C.ar 1  UNK   -0.2118 
     26 C20       22.9610 46.7363 65.1293 C.ar 1  UNK   -0.2639 
     27 C21       22.5918 47.4086 63.9648 C.ar 1  UNK   -0.2439 
     28 C22       23.5539 48.0711 63.2036 C.ar 1  UNK   -0.2078 
     29   H       22.8838 38.5427 62.6802    H 1  UNK    0.1713 
     30  H1       21.4544 39.5589 60.9506    H 1  UNK    0.1623 
     31  H2       21.9259 41.8239 60.0499    H 1  UNK    0.1315 
     32  H3       24.8788 39.7805 63.5906    H 1  UNK    0.1928 
     33  H4       24.9684 46.2653 61.9951    H 1  UNK    0.2128 
     34  H5       27.5469 46.6165 60.6332    H 1  UNK    0.2025 
     35  H6       26.1002 47.6910 60.3262    H 1  UNK    0.1200 
     36  H7       26.3553 43.9839 64.3936    H 1  UNK    0.1186 
     37  H8       26.1666 41.2731 65.8995    H 1  UNK    0.1553 
     38  H9       24.8120 42.4226 65.5540    H 1  UNK    0.1312 
     39 H10       25.7113 44.1340 67.0030    H 1  UNK    0.0805 
     40 H11       25.6936 42.5702 67.9345    H 1  UNK    0.1357 
     41 H12       27.7358 43.7641 68.2114    H 1  UNK    0.1909 
     42 H13       28.2487 44.8109 66.1338    H 1  UNK    0.0836 
     43 H14       29.4972 43.5775 66.6157    H 1  UNK    0.1378 
     44 H15       28.5899 41.9310 65.0428    H 1  UNK    0.1536 
     45 H16       28.7539 43.5129 64.1683    H 1  UNK    0.1609 
     46 H17       27.4419 47.2765 63.0958    H 1  UNK    0.1481 
     47 H18       27.8688 48.5868 61.9226    H 1  UNK    0.1550 
     48 H19       26.3726 49.5960 63.4628    H 1  UNK    0.1520 
     49 H20       25.4253 49.3334 61.9458    H 1  UNK    0.1544 
     50 H21       26.3105 47.3997 65.1025    H 1  UNK    0.2236 
     51 H22       24.5923 46.2007 66.4505    H 1  UNK    0.2205 
     52 H23       22.2021 46.2134 65.7297    H 1  UNK    0.2124 
     53 H24       21.5378 47.4254 63.6507    H 1  UNK    0.2120 
     54 H25       23.2545 48.6093 62.2918    H 1  UNK    0.2241 
@<TRIPOS>BOND                                                              
     1      1      2     ar 
     2      1      6     ar 
     3      1     29      1 
     4      2      3     ar 
     5      2     30      1 
     6      3      4     ar 
     7      3     31      1 
     8      4      5     ar 
     9      4      7      1 
    10      5      6     ar 
    11      5      9      1 
    12      6     32      1 
    13      7      8      1 
    14      8      9      2 
    15      8     10      1 
    16      9     14      1 
    17     10     11      2 
    18     10     12     am 
    19     12     13      1 
    20     12     33      1 
    21     13     21      1 
    22     13     34      1 
    23     13     35      1 
    24     14     15      1 
    25     15     16      1 
    26     15     20      1 
    27     15     36      1 
    28     16     17      1 
    29     16     37      1 
    30     16     38      1 
    31     17     18      1 
    32     17     39      1 
    33     17     40      1 
    34     18     19      1 
    35     18     41      1 
    36     19     20      1 
    37     19     42      1 
    38     19     43      1 
    39     20     44      1 
    40     20     45      1 
    41     21     22      1 
    42     21     46      1 
    43     21     47      1 
    44     22     23      1 
    45     22     48      1 
    46     22     49      1 
    47     23     24     ar 
    48     23     28     ar 
    49     24     25     ar 
    50     24     50      1 
    51     25     26     ar 
    52     25     51      1 
    53     26     27     ar 
    54     26     52      1 
    55     27     28     ar 
    56     27     53      1 
    57     28     54      1 
