@<TRIPOS>MOLECULE
*****
 49  53 0 0 0 
SMALL                                                                       
CHELPG                                                                    
                                                                            
@<TRIPOS>ATOM                                                               
      1   C       35.1204 42.8067 66.7480 C.ar 1  UNK  -44.2559 
      2  C1       34.4320 42.4860 67.9747 C.ar 1  UNK   23.5233 
      3  C2       33.0832 42.4999 68.0471 C.ar 1  UNK   -0.0516 
      4  C3       32.2646 42.8342 66.9144 C.ar 1  UNK  -11.7431 
      5  C4       33.0048 43.1654 65.6517 C.ar 1  UNK  -34.5334 
      6  C5       34.4326 43.1334 65.6281 C.ar 1  UNK   34.2911 
      7   S       30.8486 42.9273 66.6786  S.3 1  UNK   21.8814 
      8  C6       30.7142 43.3351 65.2623  C.2 1  UNK  -27.9363 
      9  C7       32.0787 43.4453 64.6699  C.2 1  UNK   25.9110 
     10  C8       29.5167 43.5493 64.5486  C.2 1  UNK   39.8548 
     11   O       29.4909 43.9048 63.1791  O.3 1  UNK  -34.3061 
     12   N       28.2547 43.4528 65.0178  N.2 1  UNK  -25.5942 
     13  O1       32.3389 43.6479 63.3492  O.3 1  UNK   17.9966 
     14 C14       32.2551 45.0327 62.9333  C.3 1  UNK  -63.0068 
     15 C15       32.0098 44.9883 61.4292  C.3 1  UNK  -72.3930 
     16 C16       32.1065 46.3964 60.8421  C.3 1  UNK  -141.2662 
     17 N17       33.3118 47.1315 61.1770  N.3 1  UNK   61.4418 
     18 C18       33.5847 47.1274 62.6017  C.3 1  UNK  -94.5876 
     19 C19       33.5553 45.7519 63.2675  C.3 1  UNK  -65.5517 
     20  N2       28.2301 44.0187 62.8033  N.2 1  UNK   27.9800 
     21 C14       27.4551 43.7513 63.8854  C.2 1  UNK  -11.2125 
     22 C15       25.9622 43.7631 63.9222  C.3 1  UNK  -113.2625 
     23 C16       25.4158 42.4194 64.2671 C.ar 1  UNK   -5.8169 
     24 C17       24.9641 41.5599 63.2596 C.ar 1  UNK   22.4739 
     25 C18       24.4403 40.3100 63.5871 C.ar 1  UNK  -24.7815 
     26 C19       24.3620 39.9031 64.9179 C.ar 1  UNK  101.5059 
     27 C20       24.8159 40.7638 65.9222 C.ar 1  UNK  -195.5597 
     28 C21       25.3401 42.0193 65.6057 C.ar 1  UNK   95.7366 
     29  Cl       24.7298 40.2775 67.5517   Cl 1  UNK  104.9485 
     30  H1       36.2196 42.7756 66.7550    H 1  UNK   23.2055 
     31  H2       35.0451 42.2278 68.8503    H 1  UNK    5.0261 
     32  H3       32.5660 42.2520 68.9876    H 1  UNK   -2.3280 
     33  H4       34.9291 43.3815 64.6775    H 1  UNK  -10.3685 
     34  H5       31.3871 45.5257 63.4499    H 1  UNK   30.4735 
     35  H6       32.7586 44.3074 60.9496    H 1  UNK   46.5663 
     36  H7       30.9901 44.5654 61.2375    H 1  UNK   29.6904 
     37  H8       31.2306 47.0022 61.2106    H 1  UNK   44.8546 
     38  H9       32.0327 46.3307 59.7211    H 1  UNK   55.6219 
     39 H10       34.0940 46.7364 60.6845    H 1  UNK    8.9360 
     40 H11       32.8117 47.7836 63.0933    H 1  UNK   42.1100 
     41 H12       34.5933 47.5969 62.7702    H 1  UNK   41.9975 
     42 H13       34.4203 45.1301 62.9186    H 1  UNK   25.5824 
     43 H14       33.6503 45.8650 64.3770    H 1  UNK   18.4562 
     44 H15       25.6333 44.5175 64.6896    H 1  UNK   54.0218 
     45 H16       25.5647 44.0961 62.9244    H 1  UNK   32.7512 
     46 H17       25.0260 41.8702 62.2052    H 1  UNK   -5.8390 
     47 H18       24.0869 39.6382 62.7904    H 1  UNK   12.9317 
     48 H19       23.9481 38.9164 65.1738    H 1  UNK  -27.1388 
     49 H20       25.7000 42.6923 66.3989    H 1  UNK  -38.2369 
@<TRIPOS>BOND                                                              
     1      1      2     ar 
     2      1      6     ar 
     3      1     30      1 
     4      2      3     ar 
     5      2     31      1 
     6      3      4     ar 
     7      3     32      1 
     8      4      5     ar 
     9      4      7      1 
    10      5      6     ar 
    11      5      9      1 
    12      6     33      1 
    13      7      8      1 
    14      8      9      2 
    15      8     10      1 
    16      9     13      1 
    17     10     11      1 
    18     10     12      2 
    19     11     20      1 
    20     12     21      1 
    21     13     14      1 
    22     14     15      1 
    23     14     19      1 
    24     14     34      1 
    25     15     16      1 
    26     15     35      1 
    27     15     36      1 
    28     16     17      1 
    29     16     37      1 
    30     16     38      1 
    31     17     18      1 
    32     17     39      1 
    33     18     19      1 
    34     18     40      1 
    35     18     41      1 
    36     19     42      1 
    37     19     43      1 
    38     20     21      2 
    39     21     22      1 
    40     22     23      1 
    41     22     44      1 
    42     22     45      1 
    43     23     24     ar 
    44     23     28     ar 
    45     24     25     ar 
    46     24     46      1 
    47     25     26     ar 
    48     25     47      1 
    49     26     27     ar 
    50     26     48      1 
    51     27     28     ar 
    52     27     29      1 
    53     28     49      1 
