#	Name:			2_09e
#	Creating user name:	Mariana
#	Creation time:		Wed Jan 11 14:35:31 2017

#	Modifying user name:	Mariana
#	Modification time:	Wed Jan 11 14:35:31 2017

@<TRIPOS>MOLECULE
2_09e
   57    61     1     0     0
SMALL
NO_CHARGES


@<TRIPOS>ATOM
      1 C          21.2402   41.0164   63.0924 C.ar      1 UNN         0.0000 
      2 C1         21.9243   39.9737   63.6894 C.ar      1 UNN         0.0000 
      3 C2         23.2947   40.0205   63.8817 C.ar      1 UNN         0.0000 
      4 C3         23.9761   41.1635   63.4503 C.ar      1 UNN         0.0000 
      5 C4         23.2897   42.2800   62.8412 C.ar      1 UNN         0.0000 
      6 C5         21.8879   42.1800   62.6773 C.ar      1 UNN         0.0000 
      7 S          25.6709   41.4979   63.5373 S.3       1 UNN         0.0000 
      8 C6         25.5352   43.0262   62.7612 C.2       1 UNN         0.0000 
      9 C7         24.2089   43.3444   62.4896 C.2       1 UNN         0.0000 
     10 C8         26.7274   43.8065   62.4586 C.2       1 UNN         0.0000 
     11 O          27.9316   43.2994   62.8063 O.3       1 UNN         0.0000 
     12 N          26.7712   44.9397   61.8269 N.2       1 UNN         0.0000 
     13 O1         23.7813   44.5156   61.9154 O.3       1 UNN         0.0000 
     14 C14        23.2830   45.4933   62.8493 C.3       1 UNN         0.0000 
     15 C15        21.9097   46.0049   62.3883 C.3       1 UNN         0.0000 
     16 C16        22.0080   46.8025   61.0683 C.3       1 UNN         0.0000 
     17 N17        22.9424   47.9222   61.1988 N.3       1 UNN         0.0000 
     18 C18        24.2801   47.4910   61.6085 C.3       1 UNN         0.0000 
     19 C19        24.2308   46.7083   62.9397 C.3       1 UNN         0.0000 
     20 N2         28.8281   44.2345   62.2922 N.2       1 UNN         0.0000 
     21 C14        28.0662   45.1573   61.7290 C.2       1 UNN         0.0000 
     22 C15        28.6296   46.3882   61.0447 C.3       1 UNN         0.0000 
     23 C16        29.9506   46.1699   60.3174 C.ar      1 UNN         0.0000 
     24 C17        31.1487   46.5738   60.9089 C.ar      1 UNN         0.0000 
     25 C18        32.3673   46.3788   60.2396 C.ar      1 UNN         0.0000 
     26 C19        32.3744   45.7751   58.9804 C.ar      1 UNN         0.0000 
     27 C20        31.1791   45.3688   58.3838 C.ar      1 UNN         0.0000 
     28 C21        29.9624   45.5675   59.0589 C.ar      1 UNN         0.0000 
     29 O2         31.2157   44.7730   57.1346 O.3       1 UNN         0.0000 
     30 C22        30.0167   44.6247   56.3773 C.3       1 UNN         0.0000 
     31 O3         33.5670   46.7757   60.8065 O.3       1 UNN         0.0000 
     32 C23        33.5860   47.4868   62.0417 C.3       1 UNN         0.0000 
     33 H1         20.1750   40.9296   62.9553 H         1 UNN         0.0000 
     34 H2         21.3758   39.1031   64.0105 H         1 UNN         0.0000 
     35 H3         23.8174   39.1957   64.3438 H         1 UNN         0.0000 
     36 H4         21.3246   42.9795   62.2226 H         1 UNN         0.0000 
     37 H5         23.1641   45.0538   63.8434 H         1 UNN         0.0000 
     38 H6         21.2238   45.1713   62.2941 H         1 UNN         0.0000 
     39 H7         21.4804   46.6415   63.1633 H         1 UNN         0.0000 
     40 H8         21.0293   47.1911   60.7861 H         1 UNN         0.0000 
     41 H9         22.3356   46.1568   60.2519 H         1 UNN         0.0000 
     42 H10        23.0005   48.4201   60.3205 H         1 UNN         0.0000 
     43 H11        24.9189   48.3676   61.7116 H         1 UNN         0.0000 
     44 H12        24.7150   46.8769   60.8178 H         1 UNN         0.0000 
     45 H13        25.2295   46.4021   63.2409 H         1 UNN         0.0000 
     46 H14        23.8914   47.3754   63.7340 H         1 UNN         0.0000 
     47 H15        27.9116   46.7730   60.3184 H         1 UNN         0.0000 
     48 H16        28.7485   47.1704   61.7932 H         1 UNN         0.0000 
     49 H17        31.1306   47.0390   61.8817 H         1 UNN         0.0000 
     50 H18        33.3106   45.6232   58.4635 H         1 UNN         0.0000 
     51 H19        29.0321   45.2572   58.6083 H         1 UNN         0.0000 
     52 H20        30.2656   44.2871   55.3718 H         1 UNN         0.0000 
     53 H21        29.4757   45.5675   56.2779 H         1 UNN         0.0000 
     54 H22        29.3570   43.8791   56.8221 H         1 UNN         0.0000 
     55 H23        34.6148   47.7479   62.2884 H         1 UNN         0.0000 
     56 H24        33.1962   46.8801   62.8606 H         1 UNN         0.0000 
     57 H25        33.0171   48.4164   61.9778 H         1 UNN         0.0000 
@<TRIPOS>BOND
     1    1    2 ar   
     2    1    6 ar   
     3    1   33 1    
     4    2    3 ar   
     5    2   34 1    
     6    3    4 ar   
     7    3   35 1    
     8    4    5 ar   
     9    4    7 1    
    10    5    6 ar   
    11    5    9 1    
    12    6   36 1    
    13    7    8 1    
    14    8    9 2    
    15    8   10 1    
    16    9   13 1    
    17   10   11 1    
    18   10   12 2    
    19   11   20 1    
    20   12   21 1    
    21   13   14 1    
    22   14   15 1    
    23   14   19 1    
    24   14   37 1    
    25   15   16 1    
    26   15   38 1    
    27   15   39 1    
    28   16   17 1    
    29   16   40 1    
    30   16   41 1    
    31   17   18 1    
    32   17   42 1    
    33   18   19 1    
    34   18   43 1    
    35   18   44 1    
    36   19   45 1    
    37   19   46 1    
    38   20   21 2    
    39   21   22 1    
    40   22   23 1    
    41   22   47 1    
    42   22   48 1    
    43   23   24 ar   
    44   23   28 ar   
    45   24   25 ar   
    46   24   49 1    
    47   25   26 ar   
    48   25   31 1    
    49   26   27 ar   
    50   26   50 1    
    51   27   28 ar   
    52   27   29 1    
    53   28   51 1    
    54   29   30 1    
    55   30   52 1    
    56   30   53 1    
    57   30   54 1    
    58   31   32 1    
    59   32   55 1    
    60   32   56 1    
    61   32   57 1    
@<TRIPOS>SUBSTRUCTURE
     1 UNN         1 GROUP             0 ****  ****    0 ROOT 
