@<TRIPOS>MOLECULE
*****
 53  57 0 0 0 
SMALL                                                                       
CHELPG                                                                    
                                                                            
@<TRIPOS>ATOM                                                               
      1   C       35.4762 41.8908 66.1905 C.ar 1  UNK  -35.6131 
      2  C1       34.7662 41.0902 67.1582 C.ar 1  UNK   10.6090 
      3  C2       33.4227 40.9583 67.1102 C.ar 1  UNK    9.7189 
      4  C3       32.6308 41.6049 66.1005 C.ar 1  UNK  -18.4359 
      5  C4       33.3930 42.4327 65.1075 C.ar 1  UNK  -40.2319 
      6  C5       34.8144 42.5372 65.2014 C.ar 1  UNK   34.9152 
      7   S       31.2271 41.6522 65.7875  S.3 1  UNK   30.7399 
      8  C6       31.1227 42.5295 64.5997  C.2 1  UNK  -57.5977 
      9  C7       32.4933 42.9654 64.2090  C.2 1  UNK   54.9645 
     10  C8       29.9423 42.8751 63.9089  C.2 1  UNK   88.7755 
     11   O       29.9244 43.7251 62.7794  O.3 1  UNK  -59.5647 
     12   N       28.6859 42.4732 64.1970  N.2 1  UNK  -59.3390 
     13  O1       32.7992 43.6527 63.0744  O.3 1  UNK   14.3815 
     14 C14       32.5684 45.0797 63.1642  C.3 1  UNK  -94.7316 
     15 C15       32.3957 45.5522 61.7249  C.3 1  UNK  -45.9854 
     16 C16       32.3544 47.0794 61.6762  C.3 1  UNK  -198.0014 
     17 N17       33.4501 47.7556 62.3452  N.3 1  UNK  103.0273 
     18 C18       33.6570 47.2707 63.6966  C.3 1  UNK  -114.5201 
     19 C19       33.7585 45.7520 63.8362  C.3 1  UNK  -44.7011 
     20  N2       28.6744 43.8453 62.3705  N.2 1  UNK   45.8670 
     21 C14       27.8974 43.1016 63.2029  C.2 1  UNK   -0.3208 
     22 C15       26.4147 42.9650 63.0923  C.3 1  UNK  -144.5923 
     23 C16       25.8371 41.9979 64.0677 C.ar 1  UNK   96.5702 
     24 C17       25.7108 40.6477 63.7299 C.ar 1  UNK  -31.3940 
     25 C18       25.1533 39.7462 64.6382 C.ar 1  UNK   -3.0377 
     26 C19       24.7158 40.1754 65.8856 C.ar 1  UNK  -13.3555 
     27 C20       24.8439 41.5362 66.2207 C.ar 1  UNK   -2.6223 
     28 C21       25.3997 42.4493 65.3187 C.ar 1  UNK  -31.7746 
     29  O2       24.3970 41.8658 67.4874  O.3 1  UNK  -11.0799 
     30 C22       24.3713 43.2527 67.8021  C.3 1  UNK  -42.6135 
     31  H1       36.5699 41.9559 66.2843    H 1  UNK   23.1684 
     32  H2       35.3586 40.5889 67.9372    H 1  UNK   10.4637 
     33  H3       32.8891 40.3434 67.8523    H 1  UNK   -3.5155 
     34  H4       35.3274 43.1542 64.4479    H 1  UNK  -12.9259 
     35  H5       31.6264 45.2703 63.7469    H 1  UNK   31.9604 
     36  H6       33.2382 45.1591 61.1004    H 1  UNK   47.6282 
     37  H7       31.4406 45.1330 61.3155    H 1  UNK   30.5867 
     38  H8       31.3985 47.4305 62.1588    H 1  UNK   54.3938 
     39  H9       32.3391 47.4103 60.6007    H 1  UNK   69.5426 
     40 H10       34.2942 47.6354 61.8128    H 1  UNK   -1.2599 
     41 H11       32.7912 47.6339 64.3197    H 1  UNK   44.0409 
     42 H12       34.5952 47.7414 64.1018    H 1  UNK   46.6027 
     43 H13       34.7055 45.3784 63.3670    H 1  UNK   22.4174 
     44 H14       33.7883 45.4721 64.9196    H 1  UNK   12.9813 
     45 H15       25.9576 43.9823 63.2462    H 1  UNK   41.7595 
     46 H16       26.1662 42.6392 62.0436    H 1  UNK   39.2403 
     47 H17       26.0526 40.2941 62.7461    H 1  UNK    8.8087 
     48 H18       25.0549 38.6852 64.3633    H 1  UNK   16.9251 
     49 H19       24.2719 39.4782 66.6094    H 1  UNK   18.5703 
     50 H20       25.5015 43.5119 65.5791    H 1  UNK  -11.1321 
     51 H21       23.9101 43.2804 68.8219    H 1  UNK   37.9533 
     52 H22       23.7437 43.8160 67.0697    H 1  UNK   23.7570 
     53 H23       25.4082 43.6680 67.8284    H 1  UNK    7.9767 
@<TRIPOS>BOND                                                              
     1      1      2     ar 
     2      1      6     ar 
     3      1     31      1 
     4      2      3     ar 
     5      2     32      1 
     6      3      4     ar 
     7      3     33      1 
     8      4      5     ar 
     9      4      7      1 
    10      5      6     ar 
    11      5      9      1 
    12      6     34      1 
    13      7      8      1 
    14      8      9      2 
    15      8     10      1 
    16      9     13      1 
    17     10     11      1 
    18     10     12      2 
    19     11     20      1 
    20     12     21      1 
    21     13     14      1 
    22     14     15      1 
    23     14     19      1 
    24     14     35      1 
    25     15     16      1 
    26     15     36      1 
    27     15     37      1 
    28     16     17      1 
    29     16     38      1 
    30     16     39      1 
    31     17     18      1 
    32     17     40      1 
    33     18     19      1 
    34     18     41      1 
    35     18     42      1 
    36     19     43      1 
    37     19     44      1 
    38     20     21      2 
    39     21     22      1 
    40     22     23      1 
    41     22     45      1 
    42     22     46      1 
    43     23     24     ar 
    44     23     28     ar 
    45     24     25     ar 
    46     24     47      1 
    47     25     26     ar 
    48     25     48      1 
    49     26     27     ar 
    50     26     49      1 
    51     27     28     ar 
    52     27     29      1 
    53     28     50      1 
    54     29     30      1 
    55     30     51      1 
    56     30     52      1 
    57     30     53      1 
