@<TRIPOS>MOLECULE
*****
 49  53 0 0 0 
SMALL                                                                       
LOEWDIN                                                                    
                                                                            
@<TRIPOS>ATOM                                                               
      1   C       22.6890 49.1702 59.5807 C.ar 1  UNK   -0.1444 
      2  C1       21.4552 49.1801 60.2048 C.ar 1  UNK   -0.1407 
      3  C2       21.0902 48.1966 61.1014 C.ar 1  UNK   -0.0683 
      4  C3       22.0079 47.1787 61.3598 C.ar 1  UNK   -1.2353 
      5  C4       23.3045 47.1379 60.7299 C.ar 1  UNK   -0.0664 
      6  C5       23.6245 48.1702 59.8235 C.ar 1  UNK   -0.0665 
      7   S       21.8307 45.8300 62.4125  S.3 1  UNK    2.6704 
      8  C6       23.3350 45.1358 61.9772  C.2 1  UNK   -1.2182 
      9  C7       24.0646 45.9751 61.1510  C.2 1  UNK    0.0405 
     10  C8       23.6851 43.8250 62.4615  C.2 1  UNK    0.1721 
     11   O       22.6879 43.0347 62.8993  O.3 1  UNK   -0.1816 
     12   N       24.8560 43.2672 62.4398  N.2 1  UNK   -0.1527 
     13  O1       25.3326 45.7167 60.6939  O.3 1  UNK   -0.1826 
     14 C14       26.3830 46.5963 61.1167  C.3 1  UNK    0.0499 
     15 C15       27.6092 46.3723 60.2011  C.3 1  UNK   -0.1887 
     16 C16       28.3470 45.0530 60.4993  C.3 1  UNK   -0.0750 
     17 N17       28.7804 45.0229 61.8931  N.3 1  UNK   -0.2926 
     18 C18       27.6500 45.1156 62.8163  C.3 1  UNK   -0.0808 
     19 C19       26.8016 46.3926 62.5919  C.3 1  UNK   -0.2035 
     20  N2       23.3107 41.8075 63.0929  N.2 1  UNK   -0.0906 
     21 C14       24.5904 42.0722 62.9370  C.2 1  UNK   -0.0389 
     22 C15       25.6682 41.0884 63.3083  C.3 1  UNK   -0.0535 
     23 C16       26.0174 41.1728 64.7867 C.ar 1  UNK   -0.0828 
     24 C17       27.0816 41.9724 65.2101 C.ar 1  UNK   -0.1106 
     25 C18       27.3977 42.0470 66.5633 C.ar 1  UNK   -0.1321 
     26 C19       26.6502 41.3268 67.4928 C.ar 1  UNK   -0.1274 
     27 C20       25.5876 40.5309 67.0747 C.ar 1  UNK   -0.1342 
     28 C21       25.2689 40.4527 65.7224 C.ar 1  UNK   -0.1154 
     29  H1       22.9332 49.9601 58.8835    H 1  UNK    0.1145 
     30  H2       20.7609 49.9728 59.9843    H 1  UNK    0.1084 
     31  H3       20.1225 48.2152 61.5805    H 1  UNK    0.0858 
     32  H4       24.5762 48.1850 59.3131    H 1  UNK    0.1246 
     33  H5       26.0371 47.6213 60.9834    H 1  UNK    0.0743 
     34  H6       27.3146 46.4198 59.1525    H 1  UNK    0.0938 
     35  H7       28.3324 47.1724 60.3413    H 1  UNK    0.0731 
     36  H8       29.2245 44.9642 59.8576    H 1  UNK    0.0803 
     37  H9       27.7113 44.1904 60.2959    H 1  UNK    0.1129 
     38 H10       29.4305 45.7767 62.0670    H 1  UNK    0.1363 
     39 H11       28.0221 45.0939 63.8394    H 1  UNK    0.0728 
     40 H12       27.0565 44.2173 62.6926    H 1  UNK    0.1235 
     41 H13       25.9253 46.3790 63.2404    H 1  UNK    0.0830 
     42 H14       27.3824 47.2607 62.9092    H 1  UNK    0.0667 
     43 H15       25.3355 40.0719 63.0929    H 1  UNK    0.1067 
     44 H16       26.5518 41.2668 62.6998    H 1  UNK    0.1218 
     45 H17       27.6600 42.5316 64.4889    H 1  UNK    0.1461 
     46 H18       28.2200 42.6641 66.8923    H 1  UNK    0.1319 
     47 H19       26.8946 41.3865 68.5432    H 1  UNK    0.1274 
     48 H20       25.0106 39.9760 67.7991    H 1  UNK    0.1294 
     49 H21       24.4429 39.8357 65.3989    H 1  UNK    0.1366 
@<TRIPOS>BOND                                                              
     1      1      2     ar 
     2      1      6     ar 
     3      1     29      1 
     4      2      3     ar 
     5      2     30      1 
     6      3      4     ar 
     7      3     31      1 
     8      4      5     ar 
     9      4      7      1 
    10      5      6     ar 
    11      5      9      1 
    12      6     32      1 
    13      7      8      1 
    14      8      9      2 
    15      8     10      1 
    16      9     13      1 
    17     10     11      1 
    18     10     12      2 
    19     11     20      1 
    20     12     21      1 
    21     13     14      1 
    22     14     15      1 
    23     14     19      1 
    24     14     33      1 
    25     15     16      1 
    26     15     34      1 
    27     15     35      1 
    28     16     17      1 
    29     16     36      1 
    30     16     37      1 
    31     17     18      1 
    32     17     38      1 
    33     18     19      1 
    34     18     39      1 
    35     18     40      1 
    36     19     41      1 
    37     19     42      1 
    38     20     21      2 
    39     21     22      1 
    40     22     23      1 
    41     22     43      1 
    42     22     44      1 
    43     23     24     ar 
    44     23     28     ar 
    45     24     25     ar 
    46     24     45      1 
    47     25     26     ar 
    48     25     46      1 
    49     26     27     ar 
    50     26     47      1 
    51     27     28     ar 
    52     27     48      1 
    53     28     49      1 
