#	Name:			2_09c
#	Creating user name:	Mariana
#	Creation time:		Wed Jan 11 14:34:50 2017

#	Modifying user name:	Mariana
#	Modification time:	Wed Jan 11 14:34:50 2017

@<TRIPOS>MOLECULE
2_09c
   53    57     1     0     0
SMALL
NO_CHARGES


@<TRIPOS>ATOM
      1 C          35.0253   42.4253   66.8075 C.ar      1 UNN         0.0000 
      2 C1         34.3021   41.8951   67.8637 C.ar      1 UNN         0.0000 
      3 C2         32.9239   41.7859   67.8135 C.ar      1 UNN         0.0000 
      4 C3         32.2726   42.2325   66.6582 C.ar      1 UNN         0.0000 
      5 C4         32.9966   42.7918   65.5379 C.ar      1 UNN         0.0000 
      6 C5         34.4050   42.8756   65.6417 C.ar      1 UNN         0.0000 
      7 S          30.5745   42.2163   66.3104 S.3       1 UNN         0.0000 
      8 C6         30.7578   42.8988   64.7396 C.2       1 UNN         0.0000 
      9 C7         32.1015   43.1725   64.4562 C.2       1 UNN         0.0000 
     10 C8         29.5750   43.1074   63.8921 C.2       1 UNN         0.0000 
     11 O          29.7371   43.6998   62.6928 O.3       1 UNN         0.0000 
     12 N          28.3513   42.7723   64.1746 N.2       1 UNN         0.0000 
     13 O1         32.5716   43.6968   63.2736 O.3       1 UNN         0.0000 
     14 C14        32.7085   45.1165   63.1914 C.3       1 UNN         0.0000 
     15 C15        32.2941   45.5925   61.7832 C.3       1 UNN         0.0000 
     16 C16        32.5604   47.0980   61.5707 C.3       1 UNN         0.0000 
     17 N17        33.9514   47.4395   61.8614 N.3       1 UNN         0.0000 
     18 C18        34.3276   47.1037   63.2327 C.3       1 UNN         0.0000 
     19 C19        34.1365   45.5997   63.5232 C.3       1 UNN         0.0000 
     20 N2         28.4408   43.7317   62.1712 N.2       1 UNN         0.0000 
     21 C14        27.6907   43.1607   63.0968 C.2       1 UNN         0.0000 
     22 C15        26.1731   42.9870   62.9346 C.3       1 UNN         0.0000 
     23 C16        25.4516   41.9727   63.8397 C.ar      1 UNN         0.0000 
     24 C17        24.5557   41.0520   63.2891 C.ar      1 UNN         0.0000 
     25 C18        23.8987   40.1350   64.1095 C.ar      1 UNN         0.0000 
     26 C19        24.1341   40.1312   65.4835 C.ar      1 UNN         0.0000 
     27 C20        25.0230   41.0487   66.0432 C.ar      1 UNN         0.0000 
     28 C21        25.6763   41.9751   65.2168 C.ar      1 UNN         0.0000 
     29 O2         25.2468   41.0323   67.4050 O.3       1 UNN         0.0000 
     30 C22        26.3211   41.8017   67.9376 C.3       1 UNN         0.0000 
     31 H1         36.0998   42.4892   66.8880 H         1 UNN         0.0000 
     32 H2         34.8243   41.5572   68.7450 H         1 UNN         0.0000 
     33 H3         32.3719   41.3682   68.6430 H         1 UNN         0.0000 
     34 H4         34.9977   43.2768   64.8340 H         1 UNN         0.0000 
     35 H5         32.0230   45.5727   63.8928 H         1 UNN         0.0000 
     36 H6         32.8236   45.0182   61.0236 H         1 UNN         0.0000 
     37 H7         31.2360   45.3968   61.6139 H         1 UNN         0.0000 
     38 H8         31.9065   47.6965   62.2063 H         1 UNN         0.0000 
     39 H9         32.3359   47.3743   60.5400 H         1 UNN         0.0000 
     40 H10        34.5663   46.9824   61.2037 H         1 UNN         0.0000 
     41 H11        33.7288   47.7033   63.9200 H         1 UNN         0.0000 
     42 H12        35.3685   47.3867   63.3900 H         1 UNN         0.0000 
     43 H13        34.8671   45.0216   62.9570 H         1 UNN         0.0000 
     44 H14        34.3606   45.4236   64.5741 H         1 UNN         0.0000 
     45 H15        25.6890   43.9515   63.0903 H         1 UNN         0.0000 
     46 H16        25.9513   42.7443   61.8936 H         1 UNN         0.0000 
     47 H17        24.3684   41.0500   62.2323 H         1 UNN         0.0000 
     48 H18        23.2083   39.4254   63.6791 H         1 UNN         0.0000 
     49 H19        23.6264   39.4174   66.1157 H         1 UNN         0.0000 
     50 H20        26.3549   42.6946   65.6432 H         1 UNN         0.0000 
     51 H21        26.4424   41.5724   68.9885 H         1 UNN         0.0000 
     52 H22        26.1184   42.8725   67.8788 H         1 UNN         0.0000 
     53 H23        27.2725   41.5784   67.4517 H         1 UNN         0.0000 
@<TRIPOS>BOND
     1    1    2 ar   
     2    1    6 ar   
     3    1   31 1    
     4    2    3 ar   
     5    2   32 1    
     6    3    4 ar   
     7    3   33 1    
     8    4    5 ar   
     9    4    7 1    
    10    5    6 ar   
    11    5    9 1    
    12    6   34 1    
    13    7    8 1    
    14    8    9 2    
    15    8   10 1    
    16    9   13 1    
    17   10   11 1    
    18   10   12 2    
    19   11   20 1    
    20   12   21 1    
    21   13   14 1    
    22   14   15 1    
    23   14   19 1    
    24   14   35 1    
    25   15   16 1    
    26   15   36 1    
    27   15   37 1    
    28   16   17 1    
    29   16   38 1    
    30   16   39 1    
    31   17   18 1    
    32   17   40 1    
    33   18   19 1    
    34   18   41 1    
    35   18   42 1    
    36   19   43 1    
    37   19   44 1    
    38   20   21 2    
    39   21   22 1    
    40   22   23 1    
    41   22   45 1    
    42   22   46 1    
    43   23   24 ar   
    44   23   28 ar   
    45   24   25 ar   
    46   24   47 1    
    47   25   26 ar   
    48   25   48 1    
    49   26   27 ar   
    50   26   49 1    
    51   27   28 ar   
    52   27   29 1    
    53   28   50 1    
    54   29   30 1    
    55   30   51 1    
    56   30   52 1    
    57   30   53 1    
@<TRIPOS>SUBSTRUCTURE
     1 UNN         1 GROUP             0 ****  ****    0 ROOT 
