@<TRIPOS>MOLECULE
*****
 57  61 0 0 0 
SMALL                                                                       
MULLIKEN                                                                    
                                                                            
@<TRIPOS>ATOM                                                               
      1   C       21.6387 41.1535 62.9045 C.ar 1  UNK   -0.2026 
      2  C1       22.1361 40.3366 63.9846 C.ar 1  UNK   -0.1961 
      3  C2       23.3465 40.5673 64.5372 C.ar 1  UNK   -0.1040 
      4  C3       24.1984 41.6330 64.0853 C.ar 1  UNK   -1.4403 
      5  C4       23.6517 42.4803 62.9726 C.ar 1  UNK   -0.0398 
      6  C5       22.3682 42.1860 62.4192 C.ar 1  UNK   -0.1207 
      7   S       25.5060 42.1030 64.4452  S.3 1  UNK    3.0056 
      8  C6       25.7593 43.2763 63.5802  C.2 1  UNK   -1.4155 
      9  C7       24.5783 43.4603 62.6841  C.2 1  UNK    0.0679 
     10  C8       26.8854 44.1265 63.4904  C.2 1  UNK    0.2189 
     11   O       28.0235 43.6902 64.2874  O.3 1  UNK   -0.2218 
     12   N       27.2104 45.2469 62.8561  N.2 1  UNK   -0.2018 
     13  O1       24.5650 44.3841 61.6845  O.3 1  UNK   -0.2098 
     14 C14       23.4265 45.2848 61.7153  C.3 1  UNK   -0.0086 
     15 C15       22.8367 45.3096 60.3101  C.3 1  UNK   -0.2611 
     16 C16       23.7306 46.0521 59.3211  C.3 1  UNK   -0.1504 
     17 N17       24.1061 47.3754 59.7826  N.3 1  UNK   -0.4014 
     18 C18       24.7360 47.3617 61.0910  C.3 1  UNK   -0.1505 
     19 C19       23.8938 46.6648 62.1558  C.3 1  UNK   -0.2582 
     20  N2       29.0103 44.5445 64.1083  N.2 1  UNK   -0.0938 
     21 C14       28.5644 45.4916 63.2479  C.2 1  UNK   -0.0168 
     22 C15       29.3465 46.6546 62.7308  C.3 1  UNK   -0.1498 
     23 C16       29.8580 46.3964 61.3519 C.ar 1  UNK   -0.0228 
     24 C17       31.2366 46.3457 61.1251 C.ar 1  UNK   -0.2806 
     25 C18       31.7086 46.1283 59.8238 C.ar 1  UNK    0.1306 
     26 C19       30.8277 45.9497 58.7470 C.ar 1  UNK   -0.2276 
     27 C20       29.4502 46.0016 59.0043 C.ar 1  UNK    0.1292 
     28 C21       28.9584 46.2340 60.2957 C.ar 1  UNK   -0.2836 
     29  O2       28.6459 45.8256 57.8944  O.3 1  UNK   -0.2617 
     30 C22       27.2569 45.6445 58.1512  C.3 1  UNK   -0.1929 
     31  O3       33.0476 46.0692 59.4837  O.3 1  UNK   -0.2624 
     32 C23       33.9746 46.1961 60.5549  C.3 1  UNK   -0.1910 
     33  H1       20.6510 40.9065 62.4893    H 1  UNK    0.1762 
     34  H2       21.4948 39.5176 64.3411    H 1  UNK    0.1688 
     35  H3       23.7202 39.9385 65.3609    H 1  UNK    0.1390 
     36  H4       22.0122 42.8175 61.5904    H 1  UNK    0.1916 
     37  H5       22.6553 44.8994 62.4387    H 1  UNK    0.1334 
     38  H6       22.6964 44.2607 59.9425    H 1  UNK    0.1352 
     39  H7       21.8327 45.8049 60.3640    H 1  UNK    0.1398 
     40  H8       23.1736 46.1781 58.3502    H 1  UNK    0.1307 
     41  H9       24.6375 45.4051 59.1184    H 1  UNK    0.1111 
     42 H10       24.7283 47.7974 59.1170    H 1  UNK    0.1978 
     43 H11       24.8943 48.4339 61.3975    H 1  UNK    0.1257 
     44 H12       25.7465 46.8541 61.0641    H 1  UNK    0.1225 
     45 H13       24.5126 46.5698 63.0846    H 1  UNK    0.1428 
     46 H14       22.9879 47.2815 62.3907    H 1  UNK    0.1287 
     47 H15       28.6786 47.5605 62.7142    H 1  UNK    0.1817 
     48 H16       30.1991 46.8714 63.4302    H 1  UNK    0.1670 
     49 H17       31.9337 46.4716 61.9643    H 1  UNK    0.2009 
     50 H18       31.2065 45.7747 57.7316    H 1  UNK    0.2286 
     51 H19       27.8761 46.2815 60.4868    H 1  UNK    0.2062 
     52 H20       26.8358 45.4057 57.1418    H 1  UNK    0.1602 
     53 H21       26.8064 46.5864 58.5511    H 1  UNK    0.1182 
     54 H22       27.0863 44.8006 58.8629    H 1  UNK    0.1153 
     55 H23       34.9692 46.0952 60.0506    H 1  UNK    0.1609 
     56 H24       33.8284 45.3811 61.3046    H 1  UNK    0.1162 
     57 H25       33.8802 47.1974 61.0413    H 1  UNK    0.1146 
@<TRIPOS>BOND                                                              
     1      1      2     ar 
     2      1      6     ar 
     3      1     33      1 
     4      2      3     ar 
     5      2     34      1 
     6      3      4     ar 
     7      3     35      1 
     8      4      5     ar 
     9      4      7      1 
    10      5      6     ar 
    11      5      9      1 
    12      6     36      1 
    13      7      8      1 
    14      8      9      2 
    15      8     10      1 
    16      9     13      1 
    17     10     11      1 
    18     10     12      2 
    19     11     20      1 
    20     12     21      1 
    21     13     14      1 
    22     14     15      1 
    23     14     19      1 
    24     14     37      1 
    25     15     16      1 
    26     15     38      1 
    27     15     39      1 
    28     16     17      1 
    29     16     40      1 
    30     16     41      1 
    31     17     18      1 
    32     17     42      1 
    33     18     19      1 
    34     18     43      1 
    35     18     44      1 
    36     19     45      1 
    37     19     46      1 
    38     20     21      2 
    39     21     22      1 
    40     22     23      1 
    41     22     47      1 
    42     22     48      1 
    43     23     24     ar 
    44     23     28     ar 
    45     24     25     ar 
    46     24     49      1 
    47     25     26     ar 
    48     25     31      1 
    49     26     27     ar 
    50     26     50      1 
    51     27     28     ar 
    52     27     29      1 
    53     28     51      1 
    54     29     30      1 
    55     30     52      1 
    56     30     53      1 
    57     30     54      1 
    58     31     32      1 
    59     32     55      1 
    60     32     56      1 
    61     32     57      1 
