@<TRIPOS>MOLECULE
*****
 52  56 0 0 0 
SMALL                                                                       
LOEWDIN                                                                    
                                                                            
@<TRIPOS>ATOM                                                               
      1   C       22.4950 48.9992 59.7976 C.ar 1  UNK   -0.1411 
      2  C1       21.3010 48.8952 60.4874 C.ar 1  UNK   -0.1456 
      3  C2       21.0658 47.8602 61.3748 C.ar 1  UNK   -0.0639 
      4  C3       22.0837 46.9177 61.5693 C.ar 1  UNK   -1.2177 
      5  C4       23.3415 46.9995 60.8658 C.ar 1  UNK   -0.0636 
      6  C5       23.5218 48.0727 59.9616 C.ar 1  UNK   -0.0716 
      7   S       22.0894 45.5282 62.6215  S.3 1  UNK    2.6574 
      8  C6       23.6498 45.0075 62.1030  C.2 1  UNK   -1.2071 
      9  C7       24.2232 45.9061 61.2223  C.2 1  UNK    0.0270 
     10  C8       24.2283 43.7518 62.5861  C.2 1  UNK    0.1846 
     11   O       25.3832 43.3352 62.0360  O.3 1  UNK   -0.0268 
     12   N       23.7441 42.9629 63.4923  N.2 1  UNK   -0.3258 
     13  O1       25.4762 45.7691 60.6942  O.3 1  UNK   -0.1932 
     14 C14       26.4666 46.7663 60.9471  C.3 1  UNK    0.0510 
     15 C15       27.6766 46.4071 60.0505  C.3 1  UNK   -0.1881 
     16 C16       28.3687 45.1062 60.5063  C.3 1  UNK   -0.0764 
     17 N17       28.8069 45.2401 61.8934  N.3 1  UNK   -0.2857 
     18 C18       27.6861 45.5238 62.7927  C.3 1  UNK   -0.0834 
     19 C19       26.9221 46.8049 62.4172  C.3 1  UNK   -0.2155 
     20  N2       25.6500 42.1387 62.6930  N.2 1  UNK   -0.0684 
     21 C14       24.7423 42.1026 63.6454  C.2 1  UNK   -0.0509 
     22 C15       24.8544 41.1737 64.8432  C.3 1  UNK   -0.0799 
     23 C16       25.6741 41.7808 66.0190  C.3 1  UNK   -0.1076 
     24 C17       27.1984 41.8606 65.8330 C.ar 1  UNK   -0.0856 
     25 C18       28.0411 41.0969 66.6398 C.ar 1  UNK   -0.1282 
     26 C19       29.4256 41.1723 66.4695 C.ar 1  UNK   -0.1323 
     27 C20       29.9644 42.0082 65.4986 C.ar 1  UNK   -0.1310 
     28 C21       29.1282 42.7728 64.6957 C.ar 1  UNK   -0.1180 
     29 C22       27.7485 42.7027 64.8638 C.ar 1  UNK   -0.1086 
     30  H1       22.6340 49.8200 59.1082    H 1  UNK    0.1143 
     31  H2       20.5321 49.6358 60.3247    H 1  UNK    0.1090 
     32  H3       20.1261 47.7875 61.8934    H 1  UNK    0.0860 
     33  H4       24.4349 48.1772 59.3975    H 1  UNK    0.1238 
     34  H5       26.0632 47.7352 60.6678    H 1  UNK    0.0787 
     35  H6       27.3759 46.3718 59.0036    H 1  UNK    0.0950 
     36  H7       28.4395 47.1759 60.0926    H 1  UNK    0.0720 
     37  H8       29.2353 44.9006 59.8774    H 1  UNK    0.0834 
     38  H9       27.6979 44.2497 60.4243    H 1  UNK    0.1205 
     39 H10       29.4976 45.9744 61.9647    H 1  UNK    0.1361 
     40 H11       28.0157 45.5694 63.8244    H 1  UNK    0.0812 
     41 H12       27.0108 44.6862 62.7471    H 1  UNK    0.1058 
     42 H13       26.0674 46.9396 63.0807    H 1  UNK    0.0826 
     43 H14       27.5654 47.6702 62.5802    H 1  UNK    0.0754 
     44 H15       23.8543 40.9361 65.2090    H 1  UNK    0.0913 
     45 H16       25.2794 40.2091 64.5623    H 1  UNK    0.1102 
     46 H17       25.2925 42.7723 66.2630    H 1  UNK    0.0832 
     47 H18       25.4697 41.1857 66.9111    H 1  UNK    0.0826 
     48 H19       27.6241 40.4456 67.3951    H 1  UNK    0.1237 
     49 H20       30.0799 40.5825 67.0915    H 1  UNK    0.1257 
     50 H21       31.0349 42.0651 65.3712    H 1  UNK    0.1275 
     51 H22       29.5486 43.4245 63.9451    H 1  UNK    0.1512 
     52 H23       27.1071 43.3041 64.2530    H 1  UNK    0.1370 
@<TRIPOS>BOND                                                              
     1      1      2     ar 
     2      1      6     ar 
     3      1     30      1 
     4      2      3     ar 
     5      2     31      1 
     6      3      4     ar 
     7      3     32      1 
     8      4      5     ar 
     9      4      7      1 
    10      5      6     ar 
    11      5      9      1 
    12      6     33      1 
    13      7      8      1 
    14      8      9      2 
    15      8     10      1 
    16      9     13      1 
    17     10     11      1 
    18     10     12      2 
    19     11     20      1 
    20     12     21      1 
    21     13     14      1 
    22     14     15      1 
    23     14     19      1 
    24     14     34      1 
    25     15     16      1 
    26     15     35      1 
    27     15     36      1 
    28     16     17      1 
    29     16     37      1 
    30     16     38      1 
    31     17     18      1 
    32     17     39      1 
    33     18     19      1 
    34     18     40      1 
    35     18     41      1 
    36     19     42      1 
    37     19     43      1 
    38     20     21      2 
    39     21     22      1 
    40     22     23      1 
    41     22     44      1 
    42     22     45      1 
    43     23     24      1 
    44     23     46      1 
    45     23     47      1 
    46     24     25     ar 
    47     24     29     ar 
    48     25     26     ar 
    49     25     48      1 
    50     26     27     ar 
    51     26     49      1 
    52     27     28     ar 
    53     27     50      1 
    54     28     29     ar 
    55     28     51      1 
    56     29     52      1 
