@<TRIPOS>MOLECULE
*****
 49  53 0 0 0 
SMALL                                                                       
MULLIKEN                                                                    
                                                                            
@<TRIPOS>ATOM                                                               
      1   C       23.0413 49.2294 59.7467 C.ar 1  UNK   -0.2037 
      2  C1       21.6388 49.1004 60.0588 C.ar 1  UNK   -0.1941 
      3  C2       21.1554 47.9967 60.6687 C.ar 1  UNK   -0.1042 
      4  C3       22.0056 46.8992 61.0399 C.ar 1  UNK   -1.4517 
      5  C4       23.4634 47.0634 60.7192 C.ar 1  UNK   -0.0552 
      6  C5       23.9192 48.2492 60.0664 C.ar 1  UNK   -0.1194 
      7   S       21.7947 45.6223 61.6619  S.3 1  UNK    3.0228 
      8  C6       23.1347 45.0049 61.7672  C.2 1  UNK   -1.4218 
      9  C7       24.1292 45.9389 61.1602  C.2 1  UNK    0.0845 
     10  C8       23.5285 43.7561 62.3016  C.2 1  UNK    0.2195 
     11   O       22.4109 42.8959 62.6685  O.3 1  UNK   -0.2189 
     12   N       24.6642 43.1280 62.5822  N.2 1  UNK   -0.1943 
     13  O1       25.4341 45.5935 60.9865  O.3 1  UNK   -0.2162 
     14 C14       26.3836 46.5229 61.5704  C.3 1  UNK    0.0070 
     15 C15       27.4206 46.8284 60.4935  C.3 1  UNK   -0.2970 
     16 C16       28.3357 45.6313 60.2351  C.3 1  UNK   -0.1654 
     17 N17       28.9419 45.0547 61.4196  N.3 1  UNK   -0.3824 
     18 C18       27.9514 44.7354 62.4303  C.3 1  UNK   -0.1738 
     19 C19       27.0072 45.8788 62.8023  C.3 1  UNK   -0.3092 
     20  N2       22.8933 41.7734 63.1605  N.2 1  UNK   -0.1031 
     21 C14       24.2442 41.8706 63.1216  C.2 1  UNK   -0.0155 
     22 C15       25.2176 40.8314 63.5736  C.3 1  UNK   -0.1527 
     23 C16       25.7675 41.1531 64.9213 C.ar 1  UNK   -0.1030 
     24 C17       26.7121 42.1756 65.0711 C.ar 1  UNK   -0.1712 
     25 C18       27.2448 42.4567 66.3280 C.ar 1  UNK   -0.1972 
     26 C19       26.8399 41.7211 67.4420 C.ar 1  UNK   -0.1924 
     27 C20       25.8981 40.7031 67.2970 C.ar 1  UNK   -0.1986 
     28 C21       25.3623 40.4190 66.0414 C.ar 1  UNK   -0.1753 
     29  H1       23.3698 50.1477 59.2387    H 1  UNK    0.1748 
     30  H2       20.9764 49.9330 59.7811    H 1  UNK    0.1678 
     31  H3       20.0829 47.9049 60.9026    H 1  UNK    0.1380 
     32  H4       24.9924 48.3230 59.8321    H 1  UNK    0.1868 
     33  H5       25.8574 47.4728 61.8651    H 1  UNK    0.1293 
     34  H6       26.8992 47.0988 59.5401    H 1  UNK    0.1496 
     35  H7       28.0224 47.7123 60.8276    H 1  UNK    0.1230 
     36  H8       29.1559 45.9376 59.5290    H 1  UNK    0.1334 
     37  H9       27.7258 44.8224 59.7406    H 1  UNK    0.1748 
     38 H10       29.6149 45.6983 61.7991    H 1  UNK    0.1879 
     39 H11       28.4893 44.3860 63.3548    H 1  UNK    0.1240 
     40 H12       27.3293 43.8806 62.0370    H 1  UNK    0.1899 
     41 H13       26.1952 45.4723 63.4579    H 1  UNK    0.1353 
     42 H14       27.5598 46.6697 63.3719    H 1  UNK    0.1150 
     43 H15       24.7111 39.8280 63.5888    H 1  UNK    0.1655 
     44 H16       26.0585 40.7788 62.8271    H 1  UNK    0.1853 
     45 H17       27.0271 42.7616 64.1913    H 1  UNK    0.2154 
     46 H18       27.9871 43.2605 66.4396    H 1  UNK    0.1974 
     47 H19       27.2628 41.9434 68.4324    H 1  UNK    0.1918 
     48 H20       25.5763 40.1218 68.1733    H 1  UNK    0.1941 
     49 H21       24.6181 39.6159 65.9321    H 1  UNK    0.2035 
@<TRIPOS>BOND                                                              
     1      1      2     ar 
     2      1      6     ar 
     3      1     29      1 
     4      2      3     ar 
     5      2     30      1 
     6      3      4     ar 
     7      3     31      1 
     8      4      5     ar 
     9      4      7      1 
    10      5      6     ar 
    11      5      9      1 
    12      6     32      1 
    13      7      8      1 
    14      8      9      2 
    15      8     10      1 
    16      9     13      1 
    17     10     11      1 
    18     10     12      2 
    19     11     20      1 
    20     12     21      1 
    21     13     14      1 
    22     14     15      1 
    23     14     19      1 
    24     14     33      1 
    25     15     16      1 
    26     15     34      1 
    27     15     35      1 
    28     16     17      1 
    29     16     36      1 
    30     16     37      1 
    31     17     18      1 
    32     17     38      1 
    33     18     19      1 
    34     18     39      1 
    35     18     40      1 
    36     19     41      1 
    37     19     42      1 
    38     20     21      2 
    39     21     22      1 
    40     22     23      1 
    41     22     43      1 
    42     22     44      1 
    43     23     24     ar 
    44     23     28     ar 
    45     24     25     ar 
    46     24     45      1 
    47     25     26     ar 
    48     25     46      1 
    49     26     27     ar 
    50     26     47      1 
    51     27     28     ar 
    52     27     48      1 
    53     28     49      1 
