@<TRIPOS>MOLECULE
*****
 52  56 0 0 0 
SMALL                                                                       
MULLIKEN                                                                    
                                                                            
@<TRIPOS>ATOM                                                               
      1   C       22.4802 49.0364 60.4489 C.ar 1  UNK   -0.2005 
      2  C1       21.3888 48.7853 61.3584 C.ar 1  UNK   -0.1991 
      3  C2       21.3733 47.6911 62.1500 C.ar 1  UNK   -0.1009 
      4  C3       22.4355 46.7238 62.1326 C.ar 1  UNK   -1.4213 
      5  C4       23.5656 47.0139 61.1864 C.ar 1  UNK   -0.0526 
      6  C5       23.5289 48.1834 60.3677 C.ar 1  UNK   -0.1244 
      7   S       22.6923 45.4869 62.8194  S.3 1  UNK    2.9936 
      8  C6       24.0101 45.0331 62.3250  C.2 1  UNK   -1.4041 
      9  C7       24.4983 46.0051 61.3088  C.2 1  UNK    0.0701 
     10  C8       24.7137 43.8697 62.7071  C.2 1  UNK    0.2337 
     11   O       25.9968 43.5524 62.2075  O.3 1  UNK   -0.0582 
     12   N       24.3118 42.9175 63.5744  N.2 1  UNK   -0.3797 
     13  O1       25.6197 45.7834 60.5702  O.3 1  UNK   -0.2282 
     14 C14       26.6346 46.8141 60.6978  C.3 1  UNK    0.0078 
     15 C15       27.1015 47.1447 59.2836  C.3 1  UNK   -0.2971 
     16 C16       27.9233 46.0045 58.6815  C.3 1  UNK   -0.1687 
     17 N17       29.0101 45.5246 59.5126  N.3 1  UNK   -0.3748 
     18 C18       28.5611 45.1862 60.8497  C.3 1  UNK   -0.1763 
     19 C19       27.7666 46.2791 61.5663  C.3 1  UNK   -0.3241 
     20  N2       26.3856 42.4166 62.7570  N.2 1  UNK   -0.0804 
     21 C14       25.3960 42.0015 63.5888  C.2 1  UNK   -0.0238 
     22 C15       25.3982 40.7505 64.3991  C.3 1  UNK   -0.1796 
     23 C16       25.3239 41.0170 65.8926  C.3 1  UNK   -0.2080 
     24 C17       26.6027 41.5203 66.4648 C.ar 1  UNK   -0.1044 
     25 C18       27.7410 40.7042 66.4758 C.ar 1  UNK   -0.1859 
     26 C19       28.9334 41.1661 67.0288 C.ar 1  UNK   -0.1958 
     27 C20       29.0005 42.4464 67.5792 C.ar 1  UNK   -0.1965 
     28 C21       27.8702 43.2626 67.5745 C.ar 1  UNK   -0.1852 
     29 C22       26.6762 42.8024 67.0206 C.ar 1  UNK   -0.1677 
     30  H1       22.4287 49.9404 59.8251    H 1  UNK    0.1746 
     31  H2       20.5681 49.5167 61.3833    H 1  UNK    0.1680 
     32  H3       20.5354 47.5070 62.8413    H 1  UNK    0.1389 
     33  H4       24.3707 48.3487 59.6776    H 1  UNK    0.1855 
     34  H5       26.1882 47.7314 61.1716    H 1  UNK    0.1352 
     35  H6       26.2102 47.3338 58.6325    H 1  UNK    0.1512 
     36  H7       27.7112 48.0834 59.3272    H 1  UNK    0.1220 
     37  H8       28.3493 46.3363 57.6948    H 1  UNK    0.1372 
     38  H9       27.2322 45.1337 58.4946    H 1  UNK    0.1846 
     39 H10       29.7275 46.2271 59.5661    H 1  UNK    0.1876 
     40 H11       29.4610 44.9168 61.4680    H 1  UNK    0.1355 
     41 H12       27.9007 44.2740 60.7703    H 1  UNK    0.1673 
     42 H13       27.3355 45.8448 62.5048    H 1  UNK    0.1349 
     43 H14       28.4363 47.1328 61.8432    H 1  UNK    0.1258 
     44 H15       24.5058 40.1387 64.0930    H 1  UNK    0.1467 
     45 H16       26.3213 40.1535 64.1669    H 1  UNK    0.1705 
     46 H17       24.4930 41.7404 66.1065    H 1  UNK    0.1369 
     47 H18       25.0615 40.0490 66.4030    H 1  UNK    0.1351 
     48 H19       27.6921 39.6943 66.0420    H 1  UNK    0.1864 
     49 H20       29.8237 40.5202 67.0289    H 1  UNK    0.1896 
     50 H21       29.9425 42.8109 68.0136    H 1  UNK    0.1918 
     51 H22       27.9196 44.2728 68.0064    H 1  UNK    0.2225 
     52 H23       25.7888 43.4522 67.0181    H 1  UNK    0.2045 
@<TRIPOS>BOND                                                              
     1      1      2     ar 
     2      1      6     ar 
     3      1     30      1 
     4      2      3     ar 
     5      2     31      1 
     6      3      4     ar 
     7      3     32      1 
     8      4      5     ar 
     9      4      7      1 
    10      5      6     ar 
    11      5      9      1 
    12      6     33      1 
    13      7      8      1 
    14      8      9      2 
    15      8     10      1 
    16      9     13      1 
    17     10     11      1 
    18     10     12      2 
    19     11     20      1 
    20     12     21      1 
    21     13     14      1 
    22     14     15      1 
    23     14     19      1 
    24     14     34      1 
    25     15     16      1 
    26     15     35      1 
    27     15     36      1 
    28     16     17      1 
    29     16     37      1 
    30     16     38      1 
    31     17     18      1 
    32     17     39      1 
    33     18     19      1 
    34     18     40      1 
    35     18     41      1 
    36     19     42      1 
    37     19     43      1 
    38     20     21      2 
    39     21     22      1 
    40     22     23      1 
    41     22     44      1 
    42     22     45      1 
    43     23     24      1 
    44     23     46      1 
    45     23     47      1 
    46     24     25     ar 
    47     24     29     ar 
    48     25     26     ar 
    49     25     48      1 
    50     26     27     ar 
    51     26     49      1 
    52     27     28     ar 
    53     27     50      1 
    54     28     29     ar 
    55     28     51      1 
    56     29     52      1 
