@<TRIPOS>MOLECULE
*****
 49  53 0 0 0 
SMALL                                                                       
MULLIKEN                                                                    
                                                                            
@<TRIPOS>ATOM                                                               
      1   C       35.0106 42.7261 66.9814 C.ar 1  UNK   -0.2063 
      2  C1       34.2750 42.1683 68.0205 C.ar 1  UNK   -0.1933 
      3  C2       32.9038 41.9660 67.8971 C.ar 1  UNK   -0.1178 
      4  C3       32.2806 42.3355 66.6954 C.ar 1  UNK   -1.3995 
      5  C4       33.0144 42.8940 65.6067 C.ar 1  UNK   -0.0101 
      6  C5       34.4003 43.0923 65.7824 C.ar 1  UNK   -0.1200 
      7   S       30.5742 42.2032 66.3223  S.3 1  UNK    2.9526 
      8  C6       30.8235 42.9140 64.7376  C.2 1  UNK   -1.3745 
      9  C7       32.1677 43.1729 64.4812  C.2 1  UNK    0.0679 
     10  C8       29.6635 43.1493 63.8702  C.2 1  UNK    0.2290 
     11   O       29.8395 43.7903 62.6868  O.3 1  UNK   -0.0772 
     12   N       28.4137 42.8389 64.1025  N.2 1  UNK   -0.3835 
     13  O1       32.6388 43.7111 63.3066  O.3 1  UNK   -0.2281 
     14 C14       32.3616 45.0763 63.0888  C.3 1  UNK    0.0053 
     15 C15       31.7836 45.2921 61.6833  C.3 1  UNK   -0.3268 
     16 C16       31.6009 46.7921 61.3914  C.3 1  UNK   -0.1753 
     17 N17       32.8820 47.4847 61.5230  N.3 1  UNK   -0.3659 
     18 C18       33.3661 47.3913 62.8996  C.3 1  UNK   -0.1749 
     19 C19       33.6323 45.9196 63.2628  C.3 1  UNK   -0.3300 
     20  N2       28.5682 43.8752 62.1227  N.2 1  UNK   -0.0932 
     21 C14       27.8061 43.2885 63.0208  C.2 1  UNK   -0.0097 
     22 C15       26.3035 43.1540 62.8308  C.3 1  UNK   -0.1488 
     23 C16       25.6477 42.2532 63.8732 C.ar 1  UNK   -0.0736 
     24 C17       24.6912 41.3058 63.4880 C.ar 1  UNK   -0.1778 
     25 C18       24.0892 40.4843 64.4421 C.ar 1  UNK   -0.1842 
     26 C19       24.4373 40.6044 65.7875 C.ar 1  UNK   -0.1745 
     27 C20       25.3881 41.5476 66.1804 C.ar 1  UNK   -0.0952 
     28 C21       25.9909 42.3700 65.2260 C.ar 1  UNK   -0.1482 
     29  Cl       25.8183 41.6975 67.8458   Cl 1  UNK    0.0000 
     30  H1       36.0727 42.8790 67.1057    H 1  UNK    0.1785 
     31  H2       34.7737 41.8936 68.9384    H 1  UNK    0.1706 
     32  H3       32.3376 41.5408 68.7129    H 1  UNK    0.1371 
     33  H4       35.0027 43.5290 64.9996    H 1  UNK    0.1920 
     34  H5       31.6238 45.3691 63.8359    H 1  UNK    0.1270 
     35  H6       32.4388 44.8420 60.9376    H 1  UNK    0.1421 
     36  H7       30.8263 44.7786 61.5944    H 1  UNK    0.1825 
     37  H8       30.8633 47.2294 62.0643    H 1  UNK    0.1451 
     38  H9       31.2214 46.9270 60.3785    H 1  UNK    0.1468 
     39 H10       33.5527 47.0346 60.9168    H 1  UNK    0.1987 
     40 H11       32.6439 47.8338 63.5857    H 1  UNK    0.1442 
     41 H12       34.2864 47.9672 62.9973    H 1  UNK    0.1429 
     42 H13       34.4335 45.5190 62.6419    H 1  UNK    0.1434 
     43 H14       33.9838 45.8503 64.2923    H 1  UNK    0.1419 
     44 H15       25.8316 44.1379 62.8651    H 1  UNK    0.1772 
     45 H16       26.0849 42.7625 61.8354    H 1  UNK    0.1743 
     46 H17       24.4109 41.2021 62.4496    H 1  UNK    0.2061 
     47 H18       23.3527 39.7549 64.1386    H 1  UNK    0.2092 
     48 H19       23.9680 39.9659 66.5218    H 1  UNK    0.2138 
     49 H20       26.7255 43.0984 65.5388    H 1  UNK    0.2191 
@<TRIPOS>BOND                                                              
     1      1      2     ar 
     2      1      6     ar 
     3      1     30      1 
     4      2      3     ar 
     5      2     31      1 
     6      3      4     ar 
     7      3     32      1 
     8      4      5     ar 
     9      4      7      1 
    10      5      6     ar 
    11      5      9      1 
    12      6     33      1 
    13      7      8      1 
    14      8      9      2 
    15      8     10      1 
    16      9     13      1 
    17     10     11      1 
    18     10     12      2 
    19     11     20      1 
    20     12     21      1 
    21     13     14      1 
    22     14     15      1 
    23     14     19      1 
    24     14     34      1 
    25     15     16      1 
    26     15     35      1 
    27     15     36      1 
    28     16     17      1 
    29     16     37      1 
    30     16     38      1 
    31     17     18      1 
    32     17     39      1 
    33     18     19      1 
    34     18     40      1 
    35     18     41      1 
    36     19     42      1 
    37     19     43      1 
    38     20     21      2 
    39     21     22      1 
    40     22     23      1 
    41     22     44      1 
    42     22     45      1 
    43     23     24     ar 
    44     23     28     ar 
    45     24     25     ar 
    46     24     46      1 
    47     25     26     ar 
    48     25     47      1 
    49     26     27     ar 
    50     26     48      1 
    51     27     28     ar 
    52     27     29      1 
    53     28     49      1 
