@<TRIPOS>MOLECULE
*****
 49  53 0 0 0 
SMALL                                                                       
LOEWDIN                                                                    
                                                                            
@<TRIPOS>ATOM                                                               
      1   C       22.3750 40.0191 63.2576 C.ar 1  UNK   -0.1501 
      2  C1       21.8000 40.9188 62.2888 C.ar 1  UNK   -0.1477 
      3  C2       22.4963 41.9784 61.8219 C.ar 1  UNK   -0.0649 
      4  C3       23.8295 42.2672 62.2668 C.ar 1  UNK   -1.2215 
      5  C4       24.3909 41.3458 63.3112 C.ar 1  UNK   -0.0627 
      6  C5       23.6207 40.2247 63.7484 C.ar 1  UNK   -0.0662 
      7   S       24.8145 43.2685 61.9359  S.3 1  UNK    2.6352 
      8  C6       25.9716 42.9690 62.7900  C.2 1  UNK   -1.1957 
      9  C7       25.6551 41.7912 63.6454  C.2 1  UNK    0.0318 
     10  C8       27.2373 43.6223 62.7480  C.2 1  UNK    0.0519 
     11   N       28.4110 43.3475 63.3669  N.2 1  UNK   -0.0287 
     12  N1       27.3776 44.7714 61.8822  N.2 1  UNK   -0.2969 
     13   O       29.2835 44.2543 62.9503  O.3 1  UNK   -0.0590 
     14  C9       28.6470 45.1285 62.0317  C.2 1  UNK    0.0563 
     15 C10       29.4744 46.2138 61.4523  C.3 1  UNK   -0.0573 
     16 C11       29.7973 45.9583 60.0200 C.ar 1  UNK   -0.0901 
     17 C12       29.3819 46.8570 59.0320 C.ar 1  UNK   -0.1116 
     18 C13       29.7142 46.6303 57.6967 C.ar 1  UNK   -0.1257 
     19 C14       30.4588 45.5062 57.3411 C.ar 1  UNK   -0.1180 
     20 C15       30.8730 44.6065 58.3241 C.ar 1  UNK   -0.1248 
     21 C16       30.5452 44.8307 59.6597 C.ar 1  UNK   -0.1052 
     22  O1       26.5638 41.1941 64.4663  O.3 1  UNK   -0.1794 
     23 C17       25.3126 40.7656 66.5270  C.3 1  UNK   -0.1638 
     24   H       27.4564 41.0759 66.2440    H 1  UNK    0.0801 
     25 C18       26.3966 42.9830 66.1761  C.3 1  UNK   -0.1684 
     26  H1       25.3349 42.5946 69.3330    H 1  UNK    0.1405 
     27  H2       24.3528 41.0955 66.0492    H 1  UNK    0.0883 
     28  H3       25.4183 39.6622 66.3693    H 1  UNK    0.0900 
     29  H4       21.7702 39.1587 63.5786    H 1  UNK    0.1104 
     30  H5       20.7786 40.7100 61.9404    H 1  UNK    0.1059 
     31  H6       22.0543 42.6591 61.0767    H 1  UNK    0.0834 
     32  H7       24.0836 39.5377 64.4736    H 1  UNK    0.1248 
     33  H8       28.9200 47.1857 61.5673    H 1  UNK    0.1123 
     34  H9       30.4293 46.2859 62.0453    H 1  UNK    0.1150 
     35 H10       28.7938 47.7453 59.3069    H 1  UNK    0.1295 
     36 H11       29.3880 47.3418 56.9239    H 1  UNK    0.1334 
     37 H12       30.7202 45.3291 56.2875    H 1  UNK    0.1324 
     38 H13       31.4602 43.7185 58.0465    H 1  UNK    0.1344 
     39 H14       30.8699 44.1216 60.4374    H 1  UNK    0.1335 
     40 C19       26.3272 43.2175 67.6838  C.3 1  UNK   -0.0741 
     41 H15       25.4941 43.4160 65.6729    H 1  UNK    0.0978 
     42 H16       27.3011 43.5057 65.7757    H 1  UNK    0.0977 
     43 H17       27.3447 42.9849 68.1201    H 1  UNK    0.0433 
     44  N2       25.2742 42.4674 68.3398  N.3 1  UNK   -0.3027 
     45 H18       26.1225 44.3095 67.8714    H 1  UNK    0.0838 
     46 C20       25.2773 41.0516 68.0260  C.3 1  UNK   -0.0711 
     47 H19       26.1492 40.5149 68.5069    H 1  UNK    0.0442 
     48 C21       26.4766 41.4963 65.8715  C.3 1  UNK    0.0478 
     49 H20       24.3325 40.6143 68.4570    H 1  UNK    0.0818 
@<TRIPOS>BOND                                                              
     1      1      2     ar 
     2      6      1     ar 
     3      1     29      1 
     4      3      2     ar 
     5      2     30      1 
     6      4      3     ar 
     7      3     31      1 
     8      5      4     ar 
     9      7      4      1 
    10      5      6     ar 
    11      9      5      1 
    12      6     32      1 
    13      8      7      1 
    14      9      8      2 
    15      8     10      1 
    16     22      9      1 
    17     10     11      2 
    18     10     12      1 
    19     11     13      1 
    20     12     14      2 
    21     14     13      1 
    22     14     15      1 
    23     15     16      1 
    24     15     33      1 
    25     15     34      1 
    26     16     17     ar 
    27     16     21     ar 
    28     17     18     ar 
    29     17     35      1 
    30     18     19     ar 
    31     18     36      1 
    32     20     19     ar 
    33     19     37      1 
    34     21     20     ar 
    35     20     38      1 
    36     21     39      1 
    37     48     22      1 
    38     23     27      1 
    39     23     28      1 
    40     23     46      1 
    41     48     23      1 
    42     48     24      1 
    43     40     25      1 
    44     25     41      1 
    45     25     42      1 
    46     25     48      1 
    47     44     26      1 
    48     40     43      1 
    49     40     44      1 
    50     40     45      1 
    51     44     46      1 
    52     46     47      1 
    53     46     49      1 
