@<TRIPOS>MOLECULE
*****
 53  57 0 0 0 
SMALL                                                                       
MULLIKEN                                                                    
                                                                            
@<TRIPOS>ATOM                                                               
      1   C       21.3137 41.4687 62.6929 C.ar 1  UNK   -0.2226 
      2  C1       21.8913 40.3912 63.3398 C.ar 1  UNK   -0.1895 
      3  C2       23.2396 40.3709 63.6457 C.ar 1  UNK   -0.1091 
      4  C3       24.0161 41.4741 63.2725 C.ar 1  UNK   -1.4383 
      5  C4       23.4489 42.6245 62.5943 C.ar 1  UNK   -0.1224 
      6  C5       22.0521 42.5907 62.3198 C.ar 1  UNK   -0.1092 
      7   S       25.7086 41.7068 63.5113  S.3 1  UNK    2.9999 
      8  C6       25.7575 43.2229 62.6984  C.2 1  UNK   -1.3882 
      9  C7       24.4889 43.6344 62.2928  C.2 1  UNK    0.1377 
     10  C8       27.0456 43.9108 62.4914  C.2 1  UNK    0.1443 
     11   N       28.1976 43.4102 62.9099  N.2 1  UNK   -0.2530 
     12  N1       27.1470 45.0587 61.8419  N.2 1  UNK   -0.1693 
     13   O       24.2568 44.8347 61.6337  O.3 1  UNK   -0.2420 
     14  C9       23.1543 46.7069 60.5592  C.3 1  UNK   -0.3007 
     15   H       22.4329 44.7745 60.7774    H 1  UNK    0.1290 
     16 C10       22.2362 45.8139 62.7405  C.3 1  UNK   -0.3320 
     17 C11       23.6739 47.9342 61.3357  C.3 1  UNK   -0.1637 
     18  H1       23.8206 46.4946 59.7219    H 1  UNK    0.1538 
     19  H2       22.1932 46.9606 60.1084    H 1  UNK    0.1273 
     20  O1       29.1648 44.2847 62.4226  O.3 1  UNK   -0.0916 
     21 C12       28.4359 45.2325 61.7977  C.2 1  UNK    0.0649 
     22 C13       29.1795 46.3713 61.1355  C.3 1  UNK   -0.1594 
     23 C14       30.0915 45.9444 59.9908 C.ar 1  UNK   -0.0926 
     24 C15       31.4352 46.3344 59.9834 C.ar 1  UNK   -0.1826 
     25 C16       32.2697 45.9482 58.9344 C.ar 1  UNK   -0.1806 
     26 C17       31.7662 45.1724 57.8903 C.ar 1  UNK   -0.2084 
     27 C18       30.4237 44.7812 57.8923 C.ar 1  UNK    0.0613 
     28 C19       29.5872 45.1684 58.9416 C.ar 1  UNK   -0.1845 
     29  O2       29.9278 44.0164 56.8667  O.3 1  UNK   -0.2566 
     30 C20       29.6219 44.7734 55.7030  C.3 1  UNK   -0.1986 
     31  H3       20.2608 41.4397 62.4697    H 1  UNK    0.1691 
     32  H4       21.2745 39.5508 63.6134    H 1  UNK    0.1631 
     33  H5       23.6778 39.5228 64.1512    H 1  UNK    0.1338 
     34  H6       21.5596 43.3951 61.8241    H 1  UNK    0.1744 
     35 C21       22.8278 47.0605 63.4310  C.3 1  UNK   -0.1612 
     36  H7       22.2441 44.9914 63.4534    H 1  UNK    0.1622 
     37  H8       21.1850 45.9954 62.5142    H 1  UNK    0.1270 
     38  H9       22.2218 47.3289 64.2957    H 1  UNK    0.1357 
     39 H10       21.9328 48.4725 62.2584    H 1  UNK    0.1952 
     40 H11       23.8355 46.8562 63.7935    H 1  UNK    0.1631 
     41 H12       23.6242 48.8126 60.6921    H 1  UNK    0.1308 
     42 H13       24.7162 47.7948 61.6258    H 1  UNK    0.1707 
     43  N2       22.8694 48.2041 62.5246  N.3 1  UNK   -0.3880 
     44 H14       28.4892 47.1249 60.7574    H 1  UNK    0.1963 
     45 H15       29.7850 46.8634 61.8915    H 1  UNK    0.1688 
     46 H16       31.8289 46.9366 60.7899    H 1  UNK    0.1987 
     47 H17       33.3063 46.2500 58.9305    H 1  UNK    0.2017 
     48 H18       32.4140 44.8737 57.0798    H 1  UNK    0.2077 
     49 H19       28.5508 44.8683 58.9423    H 1  UNK    0.2259 
     50 H20       29.2471 44.1173 54.9178    H 1  UNK    0.1566 
     51 H21       30.4922 45.3019 55.3105    H 1  UNK    0.1086 
     52 H22       28.8449 45.5082 55.9176    H 1  UNK    0.1114 
     53 C22       22.9826 45.4447 61.4305  C.3 1  UNK    0.0248 
@<TRIPOS>BOND                                                              
     1      1      2     ar 
     2      6      1     ar 
     3      1     31      1 
     4      3      2     ar 
     5      2     32      1 
     6      4      3     ar 
     7      3     33      1 
     8      5      4     ar 
     9      7      4      1 
    10      5      6     ar 
    11      9      5      1 
    12      6     34      1 
    13      8      7      1 
    14      9      8      2 
    15      8     10      1 
    16     13      9      1 
    17     10     11      2 
    18     10     12      1 
    19     11     20      1 
    20     12     21      2 
    21     53     13      1 
    22     14     17      1 
    23     14     18      1 
    24     14     19      1 
    25     53     14      1 
    26     53     15      1 
    27     16     35      1 
    28     16     36      1 
    29     16     37      1 
    30     16     53      1 
    31     17     41      1 
    32     17     42      1 
    33     17     43      1 
    34     20     21      1 
    35     21     22      1 
    36     22     23      1 
    37     22     44      1 
    38     22     45      1 
    39     23     24     ar 
    40     23     28     ar 
    41     24     25     ar 
    42     24     46      1 
    43     25     26     ar 
    44     25     47      1 
    45     26     27     ar 
    46     26     48      1 
    47     27     28     ar 
    48     27     29      1 
    49     28     49      1 
    50     29     30      1 
    51     30     50      1 
    52     30     51      1 
    53     30     52      1 
    54     35     38      1 
    55     35     40      1 
    56     35     43      1 
    57     43     39      1 
