@<TRIPOS>MOLECULE
*****
 53  57 0 0 0 
SMALL                                                                       
LOEWDIN                                                                    
                                                                            
@<TRIPOS>ATOM                                                               
      1   C       21.4326 41.0832 62.3445 C.ar 1  UNK   -0.1647 
      2  C1       21.9090 40.2042 63.3838 C.ar 1  UNK   -0.1372 
      3  C2       23.1246 40.3824 63.9447 C.ar 1  UNK   -0.0732 
      4  C3       23.9956 41.4528 63.5487 C.ar 1  UNK   -1.2278 
      5  C4       23.4606 42.3844 62.4973 C.ar 1  UNK   -0.1333 
      6  C5       22.1791 42.1304 61.9195 C.ar 1  UNK   -0.0578 
      7   S       25.3202 41.8709 63.9221  S.3 1  UNK    2.6527 
      8  C6       25.5883 43.0828 63.1285  C.2 1  UNK   -1.1956 
      9  C7       24.4014 43.3729 62.2795  C.2 1  UNK    0.1001 
     10  C8       26.7986 43.8376 63.1065  C.2 1  UNK    0.1020 
     11   N       27.8119 43.6052 64.0025  N.2 1  UNK   -0.2379 
     12  N1       27.1619 44.8702 62.1964  N.2 1  UNK   -0.1264 
     13   O       24.3777 44.3904 61.3733  O.3 1  UNK   -0.2043 
     14  C9       23.0164 45.8745 60.1242  C.3 1  UNK   -0.1927 
     15   H       22.3454 44.7033 61.8316    H 1  UNK    0.0746 
     16 C10       23.5309 46.3555 62.5682  C.3 1  UNK   -0.2197 
     17 C11       24.0274 46.9656 59.7754  C.3 1  UNK   -0.0741 
     18  H1       23.0932 45.0548 59.3645    H 1  UNK    0.0973 
     19  H2       21.9752 46.2871 60.0927    H 1  UNK    0.0770 
     20  O1       28.7929 44.4307 63.7053  O.3 1  UNK   -0.0583 
     21 C12       28.3873 45.2171 62.5855  C.2 1  UNK    0.0374 
     22 C13       29.3508 46.2331 62.1018  C.3 1  UNK   -0.0571 
     23 C14       29.7681 45.9902 60.6909 C.ar 1  UNK   -0.0738 
     24 C15       31.0901 45.6159 60.4115 C.ar 1  UNK   -0.1241 
     25 C16       31.4964 45.4234 59.0949 C.ar 1  UNK   -0.1170 
     26 C17       30.6002 45.5985 58.0401 C.ar 1  UNK   -0.1454 
     27 C18       29.2804 45.9661 58.3247 C.ar 1  UNK    0.0559 
     28 C19       28.8553 46.1651 59.6520 C.ar 1  UNK   -0.1267 
     29  O2       28.3035 46.1730 57.3694  O.3 1  UNK   -0.2180 
     30 C20       28.6793 45.9133 56.0224  C.3 1  UNK   -0.0647 
     31  H3       20.4480 40.8685 61.9048    H 1  UNK    0.1096 
     32  H4       21.2511 39.3817 63.6985    H 1  UNK    0.1050 
     33  H5       23.4869 39.7038 64.7334    H 1  UNK    0.0826 
     34  H6       21.8369 42.7920 61.1093    H 1  UNK    0.1143 
     35 C21       24.4817 47.4476 62.0812  C.3 1  UNK   -0.0717 
     36  H7       23.9782 45.8643 63.4699    H 1  UNK    0.1039 
     37  H8       22.5522 46.8121 62.8698    H 1  UNK    0.0766 
     38  H9       24.4898 48.2869 62.8305    H 1  UNK    0.0820 
     39 H10       23.3304 48.5445 60.8300    H 1  UNK    0.1427 
     40 H11       25.5209 47.0171 62.0225    H 1  UNK    0.1037 
     41 H12       23.7280 47.4498 58.8052    H 1  UNK    0.0783 
     42 H13       25.0370 46.4834 59.6340    H 1  UNK    0.1097 
     43  N2       24.1766 48.0040 60.7771  N.3 1  UNK   -0.2974 
     44 H14       28.8608 47.2448 62.1800    H 1  UNK    0.1311 
     45 H15       30.2456 46.2271 62.7835    H 1  UNK    0.1093 
     46 H16       31.8060 45.4727 61.2339    H 1  UNK    0.1332 
     47 H17       32.5346 45.1294 58.8796    H 1  UNK    0.1355 
     48 H18       30.9378 45.4488 57.0057    H 1  UNK    0.1400 
     49 H19       27.8080 46.4433 59.8512    H 1  UNK    0.1535 
     50 H20       27.7381 46.1099 55.4484    H 1  UNK    0.1003 
     51 H21       29.0061 44.8531 55.8973    H 1  UNK    0.0604 
     52 H22       29.4880 46.6132 55.6981    H 1  UNK    0.0622 
     53 C22       23.2521 45.2919 61.5139  C.3 1  UNK    0.0679 
@<TRIPOS>BOND                                                              
     1      1      2     ar 
     2      6      1     ar 
     3      1     31      1 
     4      3      2     ar 
     5      2     32      1 
     6      4      3     ar 
     7      3     33      1 
     8      5      4     ar 
     9      7      4      1 
    10      5      6     ar 
    11      9      5      1 
    12      6     34      1 
    13      8      7      1 
    14      9      8      2 
    15      8     10      1 
    16     13      9      1 
    17     10     11      2 
    18     10     12      1 
    19     11     20      1 
    20     12     21      2 
    21     53     13      1 
    22     14     17      1 
    23     14     18      1 
    24     14     19      1 
    25     53     14      1 
    26     53     15      1 
    27     16     35      1 
    28     16     36      1 
    29     16     37      1 
    30     16     53      1 
    31     17     41      1 
    32     17     42      1 
    33     17     43      1 
    34     20     21      1 
    35     21     22      1 
    36     22     23      1 
    37     22     44      1 
    38     22     45      1 
    39     23     24     ar 
    40     23     28     ar 
    41     24     25     ar 
    42     24     46      1 
    43     25     26     ar 
    44     25     47      1 
    45     26     27     ar 
    46     26     48      1 
    47     27     28     ar 
    48     27     29      1 
    49     28     49      1 
    50     29     30      1 
    51     30     50      1 
    52     30     51      1 
    53     30     52      1 
    54     35     38      1 
    55     35     40      1 
    56     35     43      1 
    57     43     39      1 
