@<TRIPOS>MOLECULE
*****
 57  61 0 0 0 
SMALL                                                                       
CHELPG                                                                    
                                                                            
@<TRIPOS>ATOM                                                               
      1   C       25.0797 38.4542 65.8121 C.ar 1  UNK  -38.0214 
      2  C1       23.9062 38.4291 64.9739 C.ar 1  UNK    6.6690 
      3  C2       23.6788 39.3970 64.0592 C.ar 1  UNK   23.5605 
      4  C3       24.5824 40.4966 63.8742 C.ar 1  UNK  -41.3245 
      5  C4       25.7892 40.5102 64.7691 C.ar 1  UNK  -56.4547 
      6  C5       25.9842 39.4576 65.7139 C.ar 1  UNK   79.5505 
      7   S       24.6270 41.6405 62.9971  S.3 1  UNK   51.8985 
      8  C6       25.8419 42.3760 63.3862  C.2 1  UNK  -46.7396 
      9  C9       26.5299 41.6380 64.4743  C.2 1  UNK   61.4406 
     10  C7       26.3167 43.5880 62.8063  C.2 1  UNK   52.0525 
     11   N       27.3555 44.3929 63.1349  N.2 1  UNK  -24.9378 
     12  N1       25.6028 44.1186 61.6674  N.2 1  UNK  -49.5612 
     13   O       27.7526 42.0077 64.9483  O.3 1  UNK   16.6101 
     14 C14       27.8034 42.2057 66.3841  C.3 1  UNK  -127.9932 
     15 C15       27.9279 43.6982 66.6669  C.3 1  UNK  -29.6860 
     16 C16       29.3025 44.2382 66.2713  C.3 1  UNK  -186.4099 
     17 N17       30.4318 43.4902 66.7918  N.3 1  UNK  127.7358 
     18 C18       30.3262 42.0762 66.4865  C.3 1  UNK  -227.9929 
     19 C19       29.0075 41.4217 66.8983  C.3 1  UNK  -105.8158 
     20  O1       27.3446 45.4000 62.2732  O.3 1  UNK   15.4859 
     21 C12       26.2624 45.2310 61.3703  C.2 1  UNK   15.0871 
     22 C13       26.0969 46.2660 60.3222  C.3 1  UNK  -85.3960 
     23 C14       24.7724 46.9465 60.4221 C.ar 1  UNK   -2.2307 
     24 C15       23.7197 46.5402 59.6078 C.ar 1  UNK   38.0424 
     25 C16       22.4817 47.2081 59.7004 C.ar 1  UNK  -29.8246 
     26 C17       22.2927 48.2661 60.5890 C.ar 1  UNK  -12.0798 
     27 C18       23.3759 48.6557 61.4003 C.ar 1  UNK   32.7053 
     28 C19       24.6115 48.0075 61.3238 C.ar 1  UNK  -10.3881 
     29  O2       23.1005 49.7095 62.2482  O.3 1  UNK    2.5665 
     30 C20       24.1623 50.1273 63.1002  C.3 1  UNK  -85.6290 
     31  O3       21.5031 46.7226 58.8558  O.3 1  UNK    0.5025 
     32 C21       20.2575 47.4123 58.8754  C.3 1  UNK  -85.4896 
     33  H1       25.2142 37.6308 66.5280    H 1  UNK   22.0699 
     34  H2       23.2041 37.5935 65.1051    H 1  UNK   11.0612 
     35  H3       22.7807 39.3696 63.4215    H 1  UNK   -8.2156 
     36  H4       26.8900 39.4936 66.3385    H 1  UNK  -44.6807 
     37  H5       26.8652 41.8067 66.8598    H 1  UNK   36.6215 
     38  H6       27.1452 44.2498 66.0867    H 1  UNK   16.2997 
     39  H7       27.7433 43.8674 67.7589    H 1  UNK   53.1384 
     40  H8       29.3942 45.3043 66.6176    H 1  UNK   56.5749 
     41  H9       29.3756 44.2230 65.1461    H 1  UNK   48.4743 
     42 H10       30.4869 43.6145 67.7882    H 1  UNK    2.5894 
     43 H11       31.1783 41.5394 66.9874    H 1  UNK   80.5271 
     44 H12       30.4424 41.9629 65.3710    H 1  UNK   79.5321 
     45 H13       28.9758 40.3802 66.4883    H 1  UNK   63.0421 
     46 H14       28.9356 41.3620 68.0147    H 1  UNK   68.7711 
     47 H15       26.9264 47.0188 60.4321    H 1  UNK   34.7674 
     48 H16       26.2077 45.7722 59.3169    H 1  UNK   36.9861 
     49 H17       23.8320 45.7110 58.8957    H 1  UNK   -7.7642 
     50 H18       21.3382 48.8012 60.6760    H 1  UNK  -10.4059 
     51 H19       25.4551 48.3135 61.9577    H 1  UNK  -25.5994 
     52 H20       23.7077 50.9657 63.6867    H 1  UNK   49.1864 
     53 H21       25.0295 50.4920 62.4980    H 1  UNK   35.7679 
     54 H22       24.4755 49.2958 63.7771    H 1  UNK   12.2800 
     55 H23       19.6509 46.8735 58.1040    H 1  UNK   46.3644 
     56 H24       20.3947 48.4840 58.5920    H 1  UNK   39.1233 
     57 H25       19.7801 47.3309 59.8820    H 1  UNK   25.5563 
@<TRIPOS>BOND                                                              
     1      1      2     ar 
     2      1      6     ar 
     3      1     33      1 
     4      2      3     ar 
     5      2     34      1 
     6      3      4     ar 
     7      3     35      1 
     8      4      5     ar 
     9      4      7      1 
    10      5      6     ar 
    11      5      9      1 
    12      6     36      1 
    13      7      8      1 
    14      8     10      1 
    15      8      9      2 
    16      9     13      1 
    17     10     11      2 
    18     10     12      1 
    19     11     20      1 
    20     12     21      2 
    21     13     14      1 
    22     14     15      1 
    23     14     19      1 
    24     14     37      1 
    25     15     16      1 
    26     15     38      1 
    27     15     39      1 
    28     16     17      1 
    29     16     40      1 
    30     16     41      1 
    31     17     18      1 
    32     17     42      1 
    33     18     19      1 
    34     18     43      1 
    35     18     44      1 
    36     19     45      1 
    37     19     46      1 
    38     20     21      1 
    39     21     22      1 
    40     22     23      1 
    41     22     47      1 
    42     22     48      1 
    43     23     24     ar 
    44     23     28     ar 
    45     24     25     ar 
    46     24     49      1 
    47     25     26     ar 
    48     25     31      1 
    49     26     27     ar 
    50     26     50      1 
    51     27     28     ar 
    52     27     29      1 
    53     28     51      1 
    54     29     30      1 
    55     30     52      1 
    56     30     53      1 
    57     30     54      1 
    58     31     32      1 
    59     32     55      1 
    60     32     56      1 
    61     32     57      1 
