@<TRIPOS>MOLECULE
*****
 49  53 0 0 0 
SMALL                                                                       
MULLIKEN                                                                    
                                                                            
@<TRIPOS>ATOM                                                               
      1   C       21.7598 39.8769 63.8360 C.ar 1  UNK   -0.2092 
      2  C1       20.8819 40.7555 63.2349 C.ar 1  UNK   -0.2009 
      3  C2       21.3171 41.9565 62.6909 C.ar 1  UNK   -0.1011 
      4  C3       22.6916 42.2358 62.7365 C.ar 1  UNK   -1.4266 
      5  C4       23.6307 41.3148 63.3345 C.ar 1  UNK   -0.0517 
      6  C5       23.1252 40.1210 63.8910 C.ar 1  UNK   -0.1194 
      7   S       23.5336 43.6578 62.1956  S.3 1  UNK    2.9695 
      8  C6       25.0900 43.0294 62.6224  C.2 1  UNK   -1.3858 
      9  C7       24.9808 41.7976 63.2522  C.2 1  UNK    0.0739 
     10  C8       26.3247 43.7739 62.2929  C.2 1  UNK    0.0955 
     11   N       27.5302 43.2656 62.4747  N.2 1  UNK   -0.0379 
     12  N1       26.3139 44.9779 61.7456  N.2 1  UNK   -0.3544 
     13   O       28.4086 44.2164 61.9723  O.3 1  UNK   -0.0927 
     14  C9       27.5823 45.1857 61.5255  C.2 1  UNK    0.0905 
     15 C10       28.2034 46.3909 60.8526  C.3 1  UNK   -0.1578 
     16 C11       29.5506 46.1017 60.1981 C.ar 1  UNK   -0.1086 
     17 C12       29.6007 45.5693 58.9077 C.ar 1  UNK   -0.1699 
     18 C13       30.8314 45.3041 58.3124 C.ar 1  UNK   -0.1897 
     19 C14       32.0123 45.5723 59.0041 C.ar 1  UNK   -0.1833 
     20 C15       31.9651 46.1010 60.2925 C.ar 1  UNK   -0.1893 
     21 C16       30.7360 46.3653 60.8905 C.ar 1  UNK   -0.1634 
     22  O1       26.0251 41.0665 63.7367  O.3 1  UNK   -0.2130 
     23 C17       25.2028 41.7068 66.1001  C.3 1  UNK   -0.2685 
     24   H       26.5207 40.1593 65.4435    H 1  UNK    0.1364 
     25 C18       27.6123 42.0017 65.3128  C.3 1  UNK   -0.2747 
     26  H1       27.1900 42.9912 68.4398    H 1  UNK    0.1924 
     27  H2       24.8004 42.6571 65.7460    H 1  UNK    0.1421 
     28  H3       24.3659 41.0107 66.1377    H 1  UNK    0.1452 
     29  H4       21.3743 38.9637 64.2667    H 1  UNK    0.1697 
     30  H5       19.8356 40.5042 63.2065    H 1  UNK    0.1644 
     31  H6       20.6172 42.6496 62.2469    H 1  UNK    0.1348 
     32  H7       23.7859 39.4035 64.3555    H 1  UNK    0.1872 
     33  H8       27.5166 46.7797 60.0999    H 1  UNK    0.1721 
     34  H9       28.3344 47.1721 61.6013    H 1  UNK    0.1749 
     35 H10       28.6868 45.3653 58.3693    H 1  UNK    0.1943 
     36 H11       30.8708 44.8946 57.3137    H 1  UNK    0.1991 
     37 H12       32.9667 45.3676 58.5401    H 1  UNK    0.1979 
     38 H13       32.8809 46.3063 60.8263    H 1  UNK    0.2005 
     39 H14       30.7000 46.7748 61.8888    H 1  UNK    0.1995 
     40 C19       28.0182 42.1517 66.7791  C.3 1  UNK   -0.1612 
     41 H15       27.4628 43.0047 64.9238    H 1  UNK    0.1552 
     42 H16       28.4374 41.5729 64.7458    H 1  UNK    0.1545 
     43 H17       28.2677 41.1887 67.2269    H 1  UNK    0.0907 
     44  N2       26.9130 42.7715 67.4929  N.3 1  UNK   -0.3931 
     45 H18       28.8992 42.7873 66.8677    H 1  UNK    0.1381 
     46 C20       25.7342 41.9128 67.5267  C.3 1  UNK   -0.1572 
     47 H19       25.9864 40.9600 67.9952    H 1  UNK    0.0918 
     48 C21       26.3117 41.1847 65.1394  C.3 1  UNK    0.0036 
     49 H20       24.9706 42.3736 68.1529    H 1  UNK    0.1357 
@<TRIPOS>BOND                                                              
     1      1      2     ar 
     2      6      1     ar 
     3      1     29      1 
     4      3      2     ar 
     5      2     30      1 
     6      4      3     ar 
     7      3     31      1 
     8      5      4     ar 
     9      7      4      1 
    10      5      6     ar 
    11      9      5      1 
    12      6     32      1 
    13      8      7      1 
    14      9      8      2 
    15      8     10      1 
    16     22      9      1 
    17     10     11      2 
    18     10     12      1 
    19     11     13      1 
    20     12     14      2 
    21     14     13      1 
    22     14     15      1 
    23     15     16      1 
    24     15     33      1 
    25     15     34      1 
    26     16     17     ar 
    27     16     21     ar 
    28     17     18     ar 
    29     17     35      1 
    30     18     19     ar 
    31     18     36      1 
    32     20     19     ar 
    33     19     37      1 
    34     21     20     ar 
    35     20     38      1 
    36     21     39      1 
    37     48     22      1 
    38     23     27      1 
    39     23     28      1 
    40     23     46      1 
    41     48     23      1 
    42     48     24      1 
    43     40     25      1 
    44     25     41      1 
    45     25     42      1 
    46     25     48      1 
    47     44     26      1 
    48     40     43      1 
    49     40     44      1 
    50     40     45      1 
    51     44     46      1 
    52     46     47      1 
    53     46     49      1 
