#	Name:			2_14c
#	Creating user name:	Mariana
#	Creation time:		Wed Jan 11 14:36:29 2017

#	Modifying user name:	Mariana
#	Modification time:	Wed Jan 11 14:36:29 2017

@<TRIPOS>MOLECULE
2_14c
   57    61     1     0     0
SMALL
NO_CHARGES


@<TRIPOS>ATOM
      1 C          24.6735   39.7560   66.5818 C.ar      1 UNN         0.0000 
      2 C1         23.5720   39.6104   65.7651 C.ar      1 UNN         0.0000 
      3 C2         23.4217   40.3643   64.6185 C.ar      1 UNN         0.0000 
      4 C3         24.4288   41.2798   64.3006 C.ar      1 UNN         0.0000 
      5 C4         25.6209   41.4306   65.1109 C.ar      1 UNN         0.0000 
      6 C5         25.6985   40.6404   66.2899 C.ar      1 UNN         0.0000 
      7 S          24.4754   42.3743   62.9787 S.3       1 UNN         0.0000 
      8 C6         26.0051   43.0399   63.3926 C.2       1 UNN         0.0000 
      9 C9         26.5514   42.4263   64.5154 C.2       1 UNN         0.0000 
     10 C7         26.5490   44.1531   62.6127 C.2       1 UNN         0.0000 
     11 N          27.7516   44.6603   62.8231 N.2       1 UNN         0.0000 
     12 N1         25.8403   44.7800   61.6911 N.2       1 UNN         0.0000 
     13 O          27.8080   42.7496   65.0219 O.3       1 UNN         0.0000 
     14 C14        28.2564   42.4689   66.3407 C.3       1 UNN         0.0000 
     15 C15        29.3770   43.4410   66.7968 C.3       1 UNN         0.0000 
     16 C16        30.8291   43.0118   66.4631 C.3       1 UNN         0.0000 
     17 N17        31.1140   41.6058   66.6966 N.3       1 UNN         0.0000 
     18 C18        30.1906   40.7847   65.9390 C.3       1 UNN         0.0000 
     19 C19        28.7744   41.0260   66.4462 C.3       1 UNN         0.0000 
     20 O1         27.7599   45.8495   62.0924 O.3       1 UNN         0.0000 
     21 C12        26.5411   45.8584   61.5106 C.2       1 UNN         0.0000 
     22 C13        26.1294   47.1010   60.7461 C.3       1 UNN         0.0000 
     23 C14        24.6305   47.2701   60.5387 C.ar      1 UNN         0.0000 
     24 C15        24.0656   47.0174   59.2894 C.ar      1 UNN         0.0000 
     25 C16        22.6939   47.1728   59.0926 C.ar      1 UNN         0.0000 
     26 C17        21.8821   47.5926   60.1569 C.ar      1 UNN         0.0000 
     27 C18        22.4421   47.8572   61.4075 C.ar      1 UNN         0.0000 
     28 C19        23.8229   47.6895   61.5986 C.ar      1 UNN         0.0000 
     29 O2         21.6232   48.2785   62.4394 O.3       1 UNN         0.0000 
     30 C20        22.1783   48.7530   63.6627 C.3       1 UNN         0.0000 
     31 O3         22.1541   46.8994   57.8494 O.3       1 UNN         0.0000 
     32 C21        20.9678   47.5681   57.4297 C.3       1 UNN         0.0000 
     33 H1         24.7399   39.1723   67.4811 H         1 UNN         0.0000 
     34 H2         22.8014   38.9044   66.0376 H         1 UNN         0.0000 
     35 H3         22.5438   40.2572   63.9992 H         1 UNN         0.0000 
     36 H4         26.5130   40.7217   66.9666 H         1 UNN         0.0000 
     37 H5         27.4012   42.6517   66.9938 H         1 UNN         0.0000 
     38 H6         29.2219   44.4342   66.3842 H         1 UNN         0.0000 
     39 H7         29.3069   43.5725   67.8760 H         1 UNN         0.0000 
     40 H8         31.5228   43.5695   67.0927 H         1 UNN         0.0000 
     41 H9         31.0618   43.2389   65.4222 H         1 UNN         0.0000 
     42 H10        31.0428   41.3870   67.6805 H         1 UNN         0.0000 
     43 H11        30.4245   39.7337   66.0775 H         1 UNN         0.0000 
     44 H12        30.2727   41.0078   64.8735 H         1 UNN         0.0000 
     45 H13        28.1537   40.3329   65.9012 H         1 UNN         0.0000 
     46 H14        28.6835   40.7733   67.4929 H         1 UNN         0.0000 
     47 H15        26.4266   47.9724   61.3276 H         1 UNN         0.0000 
     48 H16        26.6591   47.1514   59.7941 H         1 UNN         0.0000 
     49 H17        24.6920   46.6971   58.4691 H         1 UNN         0.0000 
     50 H18        20.8229   47.7141   60.0135 H         1 UNN         0.0000 
     51 H19        24.2687   47.8873   62.5618 H         1 UNN         0.0000 
     52 H20        21.3770   49.1400   64.2925 H         1 UNN         0.0000 
     53 H21        22.8822   49.5704   63.4973 H         1 UNN         0.0000 
     54 H22        22.6733   47.9533   64.2153 H         1 UNN         0.0000 
     55 H23        20.8238   47.4159   56.3593 H         1 UNN         0.0000 
     56 H24        21.0269   48.6460   57.5988 H         1 UNN         0.0000 
     57 H25        20.0860   47.1696   57.9273 H         1 UNN         0.0000 
@<TRIPOS>BOND
     1    1    2 ar   
     2    1    6 ar   
     3    1   33 1    
     4    2    3 ar   
     5    2   34 1    
     6    3    4 ar   
     7    3   35 1    
     8    4    5 ar   
     9    4    7 1    
    10    5    6 ar   
    11    5    9 1    
    12    6   36 1    
    13    7    8 1    
    14    8   10 1    
    15    8    9 2    
    16    9   13 1    
    17   10   11 2    
    18   10   12 1    
    19   11   20 1    
    20   12   21 2    
    21   13   14 1    
    22   14   15 1    
    23   14   19 1    
    24   14   37 1    
    25   15   16 1    
    26   15   38 1    
    27   15   39 1    
    28   16   17 1    
    29   16   40 1    
    30   16   41 1    
    31   17   18 1    
    32   17   42 1    
    33   18   19 1    
    34   18   43 1    
    35   18   44 1    
    36   19   45 1    
    37   19   46 1    
    38   20   21 1    
    39   21   22 1    
    40   22   23 1    
    41   22   47 1    
    42   22   48 1    
    43   23   24 ar   
    44   23   28 ar   
    45   24   25 ar   
    46   24   49 1    
    47   25   26 ar   
    48   25   31 1    
    49   26   27 ar   
    50   26   50 1    
    51   27   28 ar   
    52   27   29 1    
    53   28   51 1    
    54   29   30 1    
    55   30   52 1    
    56   30   53 1    
    57   30   54 1    
    58   31   32 1    
    59   32   55 1    
    60   32   56 1    
    61   32   57 1    
@<TRIPOS>SUBSTRUCTURE
     1 UNN         1 GROUP             0 ****  ****    0 ROOT 
