@<TRIPOS>MOLECULE
*****
 50  54 0 0 0 
SMALL                                                                       
CHELPG                                                                    
                                                                            
@<TRIPOS>ATOM                                                               
      1   C       35.1748 42.5023 66.6262 C.ar 1  UNK  -55.6052 
      2  C1       34.5100 42.1828 67.8647 C.ar 1  UNK   22.4672 
      3  C2       33.1623 42.2190 67.9646 C.ar 1  UNK    8.7419 
      4  C3       32.3280 42.5782 66.8546 C.ar 1  UNK  -58.6545 
      5  C4       33.0426 42.9182 65.5812 C.ar 1  UNK   -9.0894 
      6  C5       34.4685 42.8571 65.5256 C.ar 1  UNK   45.8230 
      7   S       30.8970 42.6918 66.6510  S.3 1  UNK   69.8278 
      8  C6       30.7500 43.1114 65.2544  C.2 1  UNK  -59.7769 
      9  C7       32.0938 43.2394 64.6322  C.2 1  UNK   39.3949 
     10  C8       29.5268 43.3238 64.5536 C.ar 1  UNK   34.3517 
     11 N11       29.3773 43.5005 63.1740 N.pl3 1  UNK   -7.8719 
     12   N       28.2868 43.3520 65.1414  N.2 1  UNK  -20.0707 
     13   O       32.2917 43.5209 63.3097  O.3 1  UNK    5.7092 
     14  C9       32.4375 44.9342 63.0279  C.3 1  UNK  -105.3666 
     15 C10       32.2692 45.0743 61.5188  C.3 1  UNK   -9.9898 
     16 C11       32.5232 46.5210 61.0980  C.3 1  UNK  -206.2149 
     17  N2       33.7959 47.0402 61.5587  N.3 1  UNK   86.6657 
     18 C12       34.0241 46.8665 62.9803  C.3 1  UNK  -180.5270 
     19 C13       33.8141 45.4288 63.4478  C.3 1  UNK   14.4752 
     20  N3       28.0885 43.6429 62.8569  N.2 1  UNK   24.0098 
     21 C14       27.4158 43.5505 64.0528 C.ar 1  UNK  -43.0000 
     22 C15       25.9322 43.6415 64.1973  C.3 1  UNK  -45.5749 
     23 C16       25.3060 42.2909 64.2812 C.ar 1  UNK  -69.9780 
     24 C17       25.3130 41.4402 63.1689 C.ar 1  UNK   48.7694 
     25 C18       24.7076 40.1872 63.2402 C.ar 1  UNK   -6.6471 
     26 C19       24.0891 39.7739 64.4206 C.ar 1  UNK  -11.9816 
     27 C20       24.0794 40.6173 65.5307 C.ar 1  UNK  -16.0304 
     28 C21       24.6860 41.8711 65.4631 C.ar 1  UNK   41.7635 
     29  H1       36.2730 42.4452 66.6052    H 1  UNK   28.3030 
     30  H2       35.1370 41.9058 68.7241    H 1  UNK    8.7169 
     31  H3       32.6616 41.9696 68.9139    H 1  UNK   -1.0640 
     32  H4       34.9522 43.0994 64.5670    H 1  UNK  -20.0582 
     33  H5       30.1088 43.5173 62.4968    H 1  UNK   -8.3072 
     34  H6       31.6336 45.5022 63.5704    H 1  UNK   35.9943 
     35  H7       32.9841 44.3837 61.0016    H 1  UNK   39.1834 
     36  H8       31.2316 44.7881 61.2126    H 1  UNK   18.4751 
     37  H9       31.6544 47.1476 61.4614    H 1  UNK   60.6732 
     38 H10       32.5306 46.5723 59.9724    H 1  UNK   69.1637 
     39 H11       33.8765 48.0098 61.3152    H 1  UNK   14.4148 
     40 H12       33.3592 47.5389 63.6007    H 1  UNK   60.9564 
     41 H13       35.0914 47.1638 63.1846    H 1  UNK   58.8728 
     42 H14       34.5966 44.7594 63.0041    H 1  UNK   17.4485 
     43 H15       33.9138 45.3793 64.5624    H 1  UNK   -3.3472 
     44 H16       25.6944 44.2395 65.1190    H 1  UNK   34.8089 
     45 H17       25.5037 44.1927 63.3151    H 1  UNK   34.1449 
     46 H18       25.8041 41.7663 62.2391    H 1  UNK  -17.2188 
     47 H19       24.7178 39.5239 62.3630    H 1  UNK   11.8110 
     48 H20       23.6100 38.7857 64.4747    H 1  UNK   15.7307 
     49 H21       23.5915 40.2951 66.4621    H 1  UNK   16.1136 
     50 H22       24.6771 42.5320 66.3425    H 1  UNK  -10.4361 
@<TRIPOS>BOND                                                              
     1      1      2     ar 
     2      1      6     ar 
     3      1     29      1 
     4      2      3     ar 
     5      2     30      1 
     6      3      4     ar 
     7      3     31      1 
     8      4      5     ar 
     9      4      7      1 
    10      5      6     ar 
    11      5      9      1 
    12      6     32      1 
    13      7      8      1 
    14      8      9      2 
    15      8     10      1 
    16      9     13      1 
    17     10     12     ar 
    18     10     11     ar 
    19     11     20     ar 
    20     11     33      1 
    21     12     21     ar 
    22     13     14      1 
    23     14     15      1 
    24     14     19      1 
    25     14     34      1 
    26     15     16      1 
    27     15     35      1 
    28     15     36      1 
    29     16     17      1 
    30     16     37      1 
    31     16     38      1 
    32     17     18      1 
    33     17     39      1 
    34     18     19      1 
    35     18     40      1 
    36     18     41      1 
    37     19     42      1 
    38     19     43      1 
    39     20     21     ar 
    40     21     22      1 
    41     22     23      1 
    42     22     44      1 
    43     22     45      1 
    44     23     24     ar 
    45     23     28     ar 
    46     24     25     ar 
    47     24     46      1 
    48     25     26     ar 
    49     25     47      1 
    50     26     27     ar 
    51     26     48      1 
    52     27     28     ar 
    53     27     49      1 
    54     28     50      1 
