@<TRIPOS>MOLECULE
*****
 50  54 0 0 0 
SMALL                                                                       
MULLIKEN                                                                    
                                                                            
@<TRIPOS>ATOM                                                               
      1   C       34.9767 42.4601 66.7452 C.ar 1  UNK   -0.1941 
      2  C1       34.2772 41.9293 67.8179 C.ar 1  UNK   -0.2072 
      3  C2       32.8988 41.8101 67.7942 C.ar 1  UNK   -0.0935 
      4  C3       32.2216 42.2466 66.6488 C.ar 1  UNK   -1.4390 
      5  C4       32.9204 42.8055 65.5128 C.ar 1  UNK   -0.0157 
      6  C5       34.3306 42.9006 65.5896 C.ar 1  UNK   -0.1350 
      7   S       30.5141 42.2175 66.3334  S.3 1  UNK    3.0188 
      8  C6       30.6663 42.8874 64.7516  C.2 1  UNK   -1.4149 
      9  C7       32.0033 43.1726 64.4469  C.2 1  UNK    0.0228 
     10  C8       29.4657 43.0802 63.9110 C.ar 1  UNK    0.1741 
     11 N11       29.4758 43.6044 62.6931 N.pl3 1  UNK   -0.2729 
     12   N       28.2545 42.7580 64.2468  N.2 1  UNK   -0.3360 
     13   O       32.4473 43.6983 63.2559  O.3 1  UNK   -0.2404 
     14  C9       32.6078 45.1154 63.1780  C.3 1  UNK   -0.0097 
     15 C10       32.1845 45.5926 61.7715  C.3 1  UNK   -0.2616 
     16 C11       32.4673 47.0931 61.5529  C.3 1  UNK   -0.1535 
     17  N2       33.8672 47.4131 61.8192  N.3 1  UNK   -0.3895 
     18 C12       34.2430 47.0881 63.1928  C.3 1  UNK   -0.1564 
     19 C13       34.0455 45.5855 63.4924  C.3 1  UNK   -0.2771 
     20  N3       28.2902 43.6631 62.1390  N.2 1  UNK   -0.1010 
     21 C14       27.5577 43.1085 63.1291 C.ar 1  UNK   -0.0634 
     22 C15       26.0474 42.9033 62.9959  C.3 1  UNK   -0.1352 
     23 C16       25.3513 41.8887 63.9163 C.ar 1  UNK   -0.0752 
     24 C17       24.5521 40.8829 63.3654 C.ar 1  UNK   -0.1807 
     25 C18       23.9069 39.9723 64.1958 C.ar 1  UNK   -0.1916 
     26 C19       24.0583 40.0598 65.5773 C.ar 1  UNK   -0.1950 
     27 C20       24.8514 41.0602 66.1323 C.ar 1  UNK   -0.2074 
     28 C21       25.4964 41.9750 65.3060 C.ar 1  UNK   -0.1714 
     29  H1       36.0522 42.5339 66.8064    H 1  UNK    0.1746 
     30  H2       34.8205 41.6012 68.6914    H 1  UNK    0.1681 
     31  H3       32.3661 41.3930 68.6364    H 1  UNK    0.1385 
     32  H4       34.9037 43.3025 64.7695    H 1  UNK    0.1915 
     33  H5       30.3041 43.9351 62.2183    H 1  UNK    0.3735 
     34  H6       31.9376 45.5720 63.8929    H 1  UNK    0.1232 
     35  H7       32.7057 45.0121 61.0096    H 1  UNK    0.1640 
     36  H8       31.1230 45.4090 61.6140    H 1  UNK    0.1139 
     37  H9       31.8327 47.7054 62.1953    H 1  UNK    0.0886 
     38 H10       32.2283 47.3746 60.5264    H 1  UNK    0.1451 
     39 H11       34.0282 48.3945 61.6419    H 1  UNK    0.2037 
     40 H12       33.6502 47.6963 63.8796    H 1  UNK    0.0870 
     41 H13       35.2856 47.3670 63.3464    H 1  UNK    0.1444 
     42 H14       34.7634 45.0016 62.9154    H 1  UNK    0.1593 
     43 H15       34.2828 45.4091 64.5410    H 1  UNK    0.1453 
     44 H16       25.5385 43.8622 63.0937    H 1  UNK    0.1580 
     45 H17       25.8431 42.6129 61.9641    H 1  UNK    0.1547 
     46 H18       24.4334 40.8136 62.2973    H 1  UNK    0.1994 
     47 H19       23.2899 39.1955 63.7683    H 1  UNK    0.1964 
     48 H20       23.5569 39.3522 66.2208    H 1  UNK    0.1915 
     49 H21       24.9627 41.1265 67.2053    H 1  UNK    0.1830 
     50 H22       26.1065 42.7536 65.7395    H 1  UNK    0.1979 
@<TRIPOS>BOND                                                              
     1      1      2     ar 
     2      1      6     ar 
     3      1     29      1 
     4      2      3     ar 
     5      2     30      1 
     6      3      4     ar 
     7      3     31      1 
     8      4      5     ar 
     9      4      7      1 
    10      5      6     ar 
    11      5      9      1 
    12      6     32      1 
    13      7      8      1 
    14      8      9      2 
    15      8     10      1 
    16      9     13      1 
    17     10     12     ar 
    18     10     11     ar 
    19     11     20     ar 
    20     11     33      1 
    21     12     21     ar 
    22     13     14      1 
    23     14     15      1 
    24     14     19      1 
    25     14     34      1 
    26     15     16      1 
    27     15     35      1 
    28     15     36      1 
    29     16     17      1 
    30     16     37      1 
    31     16     38      1 
    32     17     18      1 
    33     17     39      1 
    34     18     19      1 
    35     18     40      1 
    36     18     41      1 
    37     19     42      1 
    38     19     43      1 
    39     20     21     ar 
    40     21     22      1 
    41     22     23      1 
    42     22     44      1 
    43     22     45      1 
    44     23     24     ar 
    45     23     28     ar 
    46     24     25     ar 
    47     24     46      1 
    48     25     26     ar 
    49     25     47      1 
    50     26     27     ar 
    51     26     48      1 
    52     27     28     ar 
    53     27     49      1 
    54     28     50      1 
