@<TRIPOS>MOLECULE
*****
 53  57 0 0 0 
SMALL                                                                       
LOEWDIN                                                                    
                                                                            
@<TRIPOS>ATOM                                                               
      1   C       21.7018 39.7325 63.8629 C.ar 1  UNK   -0.1500 
      2  C1       20.8242 40.6119 63.2515 C.ar 1  UNK   -0.1414 
      3  C2       21.2635 41.8026 62.6929 C.ar 1  UNK   -0.0703 
      4  C3       22.6342 42.0864 62.7544 C.ar 1  UNK   -1.2252 
      5  C4       23.5772 41.1671 63.3540 C.ar 1  UNK   -0.0619 
      6  C5       23.0721 39.9724 63.9088 C.ar 1  UNK   -0.0631 
      7   S       23.4614 43.5155 62.2441  S.3 1  UNK    2.6395 
      8  C6       25.0170 42.9064 62.6783  C.2 1  UNK   -1.2032 
      9  C7       24.9288 41.6632 63.2792  C.2 1  UNK    0.0446 
     10  C8       26.1972 43.6989 62.4191  C.2 1  UNK    0.0922 
     11   N       27.4502 43.3249 62.5283  N.2 1  UNK   -0.0696 
     12   O       26.0203 44.9820 62.0676  O.3 1  UNK   -0.1789 
     13  O1       25.9873 40.9484 63.7715  O.3 1  UNK   -0.1759 
     14  C9       26.2591 41.0894 65.1776  C.3 1  UNK    0.0458 
     15 C10       25.1154 41.5663 66.1239  C.3 1  UNK   -0.1638 
     16 C11       25.6178 41.8511 67.5469  C.3 1  UNK   -0.0721 
     17  N1       26.7482 42.7714 67.4929  N.3 1  UNK   -0.3012 
     18 C12       27.8926 42.1795 66.8190  C.3 1  UNK   -0.0752 
     19 C13       27.5150 41.9722 65.3526  C.3 1  UNK   -0.1690 
     20  N2       28.1877 44.5016 62.3810  N.2 1  UNK   -0.0712 
     21 C14       27.2850 45.4327 62.1892  C.2 1  UNK   -0.0651 
     22 C15       27.5064 46.9231 62.1134  C.3 1  UNK   -0.0423 
     23 C16       26.2809 47.6933 62.6146 C.ar 1  UNK   -0.0426 
     24 C17       26.3248 48.3724 63.8366 C.ar 1  UNK   -0.1401 
     25 C18       25.2029 49.0614 64.2929 C.ar 1  UNK   -0.0900 
     26 C19       24.0314 49.0735 63.5348 C.ar 1  UNK   -0.1483 
     27 C20       23.9765 48.4027 62.3136 C.ar 1  UNK    0.0751 
     28 C21       25.1077 47.7091 61.8531 C.ar 1  UNK   -0.2123 
     29  O2       22.8037 48.4325 61.5780  O.3 1  UNK   -0.2261 
     30 C22       22.7663 47.9173 60.2484  C.3 1  UNK   -0.0515 
     31   H       21.3140 38.8224 64.2965    H 1  UNK    0.1129 
     32  H1       19.7719 40.3724 63.2267    H 1  UNK    0.1076 
     33  H2       20.5654 42.4954 62.2460    H 1  UNK    0.0851 
     34  H3       23.7325 39.2562 64.3756    H 1  UNK    0.1270 
     35  H4       26.5193 40.0778 65.4927    H 1  UNK    0.0828 
     36  H5       24.6568 42.4808 65.7450    H 1  UNK    0.0868 
     37  H6       24.3229 40.8211 66.1760    H 1  UNK    0.0886 
     38  H7       25.9133 40.9310 68.0545    H 1  UNK    0.0452 
     39  H8       24.8240 42.2980 68.1455    H 1  UNK    0.0817 
     40  H9       26.9996 43.0405 68.4348    H 1  UNK    0.1401 
     41 H10       28.1763 41.2412 67.2986    H 1  UNK    0.0439 
     42 H11       28.7435 42.8562 66.9022    H 1  UNK    0.0860 
     43 H12       27.3187 42.9580 64.9438    H 1  UNK    0.0981 
     44 H13       28.3650 41.5726 64.8026    H 1  UNK    0.1016 
     45 H14       28.3944 47.2074 62.6774    H 1  UNK    0.1301 
     46 H15       27.6945 47.1724 61.0713    H 1  UNK    0.1092 
     47 H16       27.2239 48.3636 64.4302    H 1  UNK    0.1441 
     48 H17       25.2390 49.5835 65.2374    H 1  UNK    0.1443 
     49 H18       23.1634 49.6049 63.8940    H 1  UNK    0.1478 
     50 H19       25.0775 47.1832 60.9111    H 1  UNK    0.1294 
     51 H20       21.7823 48.1052 59.8189    H 1  UNK    0.1103 
     52 H21       22.9293 46.8385 60.2301    H 1  UNK    0.0311 
     53 H22       23.5011 48.4055 59.6052    H 1  UNK    0.0794 
@<TRIPOS>BOND                                                              
     1      1      2     ar 
     2      1      6     ar 
     3      1     31      1 
     4      2      3     ar 
     5      2     32      1 
     6      3      4     ar 
     7      3     33      1 
     8      4      5     ar 
     9      4      7      1 
    10      5      6     ar 
    11      5      9      1 
    12      6     34      1 
    13      7      8      1 
    14      8      9      2 
    15      8     10      1 
    16      9     13      1 
    17     10     11      2 
    18     10     12      1 
    19     11     20      1 
    20     12     21      1 
    21     13     14      1 
    22     14     15      1 
    23     14     19      1 
    24     14     35      1 
    25     15     16      1 
    26     15     36      1 
    27     15     37      1 
    28     16     17      1 
    29     16     38      1 
    30     16     39      1 
    31     17     18      1 
    32     17     40      1 
    33     18     19      1 
    34     18     41      1 
    35     18     42      1 
    36     19     43      1 
    37     19     44      1 
    38     20     21      2 
    39     21     22      1 
    40     22     23      1 
    41     22     45      1 
    42     22     46      1 
    43     23     24     ar 
    44     23     28     ar 
    45     24     25     ar 
    46     24     47      1 
    47     25     26     ar 
    48     25     48      1 
    49     26     27     ar 
    50     26     49      1 
    51     27     28     ar 
    52     27     29      1 
    53     28     50      1 
    54     29     30      1 
    55     30     51      1 
    56     30     52      1 
    57     30     53      1 
