@<TRIPOS>MOLECULE
*****
 53  57 0 0 0 
SMALL                                                                       
CHELPG                                                                    
                                                                            
@<TRIPOS>ATOM                                                               
      1   C       21.2116 39.7335 64.8187 C.ar 1  UNK  -58.2859 
      2  C1       20.2536 40.6990 64.3380 C.ar 1  UNK   39.1468 
      3  C2       20.6474 41.8976 63.8552 C.ar 1  UNK  -26.1310 
      4  C3       22.0323 42.2748 63.7961 C.ar 1  UNK    6.3747 
      5  C4       23.0080 41.2585 64.3123 C.ar 1  UNK  -69.1154 
      6  C5       22.5389 40.0029 64.8063 C.ar 1  UNK   72.7906 
      7   S       22.7520 43.4336 63.3398  S.3 1  UNK   29.6634 
      8  C6       24.1739 43.1475 63.5861  C.2 1  UNK  -49.3771 
      9  C7       24.2787 41.7766 64.1825  C.2 1  UNK   74.8107 
     10  C8       25.3425 43.9034 63.3251  C.2 1  UNK   30.3987 
     11   N       26.5689 44.0056 63.8733  N.2 1  UNK  -39.9429 
     12   O       25.2580 44.8086 62.2302  O.3 1  UNK   -8.0023 
     13  O1       25.4540 41.1252 64.3960  O.3 1  UNK    2.4367 
     14  C9       26.0304 41.3464 65.7071  C.3 1  UNK  -119.3795 
     15 C10       27.5117 41.0190 65.5625  C.3 1  UNK    0.9560 
     16 C11       28.1938 41.0752 66.9273  C.3 1  UNK  -214.9760 
     17  N1       27.5430 40.2616 67.9370  N.3 1  UNK   78.7276 
     18 C12       26.1172 40.4968 68.0575  C.3 1  UNK  -159.6080 
     19 C13       25.3789 40.4181 66.7239  C.3 1  UNK   12.7018 
     20  N2       27.2729 44.9092 63.2021  N.2 1  UNK   45.4372 
     21 C14       26.5249 45.4237 62.2133  C.2 1  UNK  -34.8756 
     22 C15       26.7809 46.4459 61.1755  C.3 1  UNK  -80.4409 
     23 C16       26.2041 47.7752 61.5311 C.ar 1  UNK  -40.4051 
     24 C17       26.5201 48.3801 62.7503 C.ar 1  UNK   55.5987 
     25 C18       25.9981 49.6359 63.0653 C.ar 1  UNK  -39.6510 
     26 C19       25.1644 50.3013 62.1744 C.ar 1  UNK   32.6957 
     27 C20       24.8528 49.6891 60.9458 C.ar 1  UNK  -31.5870 
     28 C21       25.3665 48.4296 60.6198 C.ar 1  UNK   32.1178 
     29  O2       24.0091 50.4217 60.1317  O.3 1  UNK   -7.4891 
     30 C22       23.7829 49.8995 58.8282  C.3 1  UNK  -55.0965 
     31   H       20.8269 38.7737 65.1926    H 1  UNK   23.8775 
     32  H1       19.1897 40.4240 64.3771    H 1  UNK    5.7434 
     33  H2       19.9095 42.6286 63.4886    H 1  UNK    4.2018 
     34  H3       23.2929 39.2843 65.1637    H 1  UNK  -25.9875 
     35  H4       25.8901 42.4187 66.0075    H 1  UNK   38.8469 
     36  H5       27.6232 40.0006 65.1094    H 1  UNK   38.4076 
     37  H6       27.9973 41.7594 64.8776    H 1  UNK   15.9048 
     38  H7       28.2607 42.1600 67.2399    H 1  UNK   61.1029 
     39  H8       29.2467 40.6886 66.8195    H 1  UNK   73.1717 
     40  H9       27.9857 40.4068 68.8254    H 1  UNK   16.0229 
     41 H10       25.8926 41.5030 68.5232    H 1  UNK   55.2701 
     42 H11       25.7071 39.7066 68.7481    H 1  UNK   56.3915 
     43 H12       25.3986 39.3682 66.3314    H 1  UNK   20.0595 
     44 H13       24.3074 40.7064 66.8750    H 1  UNK   -6.3166 
     45 H14       27.8949 46.5517 61.0445    H 1  UNK   39.4215 
     46 H15       26.3522 46.0767 60.2036    H 1  UNK   45.8948 
     47 H16       27.1835 47.8634 63.4611    H 1  UNK  -21.2685 
     48 H17       26.2527 50.1062 64.0274    H 1  UNK   18.9091 
     49 H18       24.7485 51.2914 62.4072    H 1  UNK    7.2725 
     50 H19       25.1255 47.9533 59.6594    H 1  UNK  -31.0028 
     51 H20       23.1419 50.6789 58.3431    H 1  UNK   40.6911 
     52 H21       23.2403 48.9245 58.8846    H 1  UNK   14.5437 
     53 H22       24.7456 49.7796 58.2747    H 1  UNK   29.3486 
@<TRIPOS>BOND                                                              
     1      1      2     ar 
     2      1      6     ar 
     3      1     31      1 
     4      2      3     ar 
     5      2     32      1 
     6      3      4     ar 
     7      3     33      1 
     8      4      5     ar 
     9      4      7      1 
    10      5      6     ar 
    11      5      9      1 
    12      6     34      1 
    13      7      8      1 
    14      8      9      2 
    15      8     10      1 
    16      9     13      1 
    17     10     11      2 
    18     10     12      1 
    19     11     20      1 
    20     12     21      1 
    21     13     14      1 
    22     14     15      1 
    23     14     19      1 
    24     14     35      1 
    25     15     16      1 
    26     15     36      1 
    27     15     37      1 
    28     16     17      1 
    29     16     38      1 
    30     16     39      1 
    31     17     18      1 
    32     17     40      1 
    33     18     19      1 
    34     18     41      1 
    35     18     42      1 
    36     19     43      1 
    37     19     44      1 
    38     20     21      2 
    39     21     22      1 
    40     22     23      1 
    41     22     45      1 
    42     22     46      1 
    43     23     24     ar 
    44     23     28     ar 
    45     24     25     ar 
    46     24     47      1 
    47     25     26     ar 
    48     25     48      1 
    49     26     27     ar 
    50     26     49      1 
    51     27     28     ar 
    52     27     29      1 
    53     28     50      1 
    54     29     30      1 
    55     30     51      1 
    56     30     52      1 
    57     30     53      1 
