@<TRIPOS>MOLECULE
*****
 49  53 0 0 0 
SMALL                                                                       
LOEWDIN                                                                    
                                                                            
@<TRIPOS>ATOM                                                               
      1   C       35.2398 42.5627 66.9483 C.ar 1  UNK   -0.1475 
      2  C1       34.5616 42.3434 68.2027 C.ar 1  UNK   -0.1417 
      3  C2       33.2187 42.4495 68.3024 C.ar 1  UNK   -0.0713 
      4  C3       32.3973 42.7861 67.1726 C.ar 1  UNK   -1.2178 
      5  C4       33.1266 43.0150 65.8815 C.ar 1  UNK   -0.0485 
      6  C5       34.5483 42.8859 65.8296 C.ar 1  UNK   -0.0642 
      7   S       30.9871 42.9581 66.9564  S.3 1  UNK    2.6298 
      8  C6       30.8370 43.3166 65.5344  C.2 1  UNK   -1.2062 
      9  C7       32.1979 43.3168 64.9084  C.2 1  UNK    0.0336 
     10  C8       29.6832 43.5886 64.7611  C.2 1  UNK    0.0901 
     11   N       29.4268 43.9914 63.5013  N.2 1  UNK   -0.0712 
     12   O       28.4437 43.4049 65.4406  O.3 1  UNK   -0.1853 
     13  O1       32.4368 43.4409 63.5750  O.3 1  UNK   -0.1849 
     14  C9       32.5622 44.8086 63.1157  C.3 1  UNK    0.0540 
     15 C10       32.3193 44.7580 61.6123  C.3 1  UNK   -0.1560 
     16 C11       32.5738 46.1318 60.9966  C.3 1  UNK   -0.0701 
     17  N1       33.8713 46.6885 61.3302  N.3 1  UNK   -0.2986 
     18 C12       34.1684 46.6904 62.7495  C.3 1  UNK   -0.0675 
     19 C13       33.9631 45.3297 63.4095  C.3 1  UNK   -0.1747 
     20  N2       28.1119 44.0697 63.3284  N.2 1  UNK   -0.0729 
     21 C14       27.4813 43.7274 64.4610  C.2 1  UNK   -0.0506 
     22 C15       26.0550 43.6394 64.8436  C.3 1  UNK   -0.0485 
     23 C16       25.4920 42.2759 64.6258 C.ar 1  UNK   -0.0707 
     24 C17       25.5325 41.6883 63.3557 C.ar 1  UNK   -0.1118 
     25 C18       24.9786 40.4259 63.1512 C.ar 1  UNK   -0.1196 
     26 C19       24.3791 39.7433 64.2102 C.ar 1  UNK   -0.1232 
     27 C20       24.3352 40.3263 65.4762 C.ar 1  UNK   -0.1382 
     28 C21       24.8905 41.5881 65.6852 C.ar 1  UNK   -0.1310 
     29   H       36.3342 42.4572 66.9333    H 1  UNK    0.1145 
     30  H1       35.1774 42.0848 69.0762    H 1  UNK    0.1081 
     31  H2       32.7086 42.2790 69.2637    H 1  UNK    0.0843 
     32  H3       35.0371 43.0575 64.8580    H 1  UNK    0.1312 
     33  H4       31.7905 45.4490 63.6199    H 1  UNK    0.0646 
     34  H5       32.9951 43.9911 61.1539    H 1  UNK    0.1003 
     35  H6       31.2612 44.4528 61.4103    H 1  UNK    0.1037 
     36  H7       31.7295 46.8165 61.3088    H 1  UNK    0.0367 
     37  H8       32.5342 46.0360 59.8746    H 1  UNK    0.0861 
     38  H9       33.9421 47.6217 60.9690    H 1  UNK    0.1438 
     39 H10       33.5454 47.4496 63.3110    H 1  UNK    0.0368 
     40 H11       35.2484 46.9909 62.8625    H 1  UNK    0.0833 
     41 H12       34.7177 44.5948 63.0257    H 1  UNK    0.0997 
     42 H13       34.1126 45.4256 64.5150    H 1  UNK    0.0820 
     43 H14       25.9575 43.9371 65.9232    H 1  UNK    0.1116 
     44 H15       25.4747 44.3813 64.2255    H 1  UNK    0.1213 
     45 H16       26.0083 42.2261 62.5202    H 1  UNK    0.1400 
     46 H17       25.0156 39.9684 62.1514    H 1  UNK    0.1383 
     47 H18       23.9417 38.7476 64.0466    H 1  UNK    0.1339 
     48 H19       23.8612 39.7918 66.3123    H 1  UNK    0.1247 
     49 H20       24.8503 42.0434 66.6858    H 1  UNK    0.1199 
@<TRIPOS>BOND                                                              
     1      1      2     ar 
     2      1      6     ar 
     3      1     29      1 
     4      2      3     ar 
     5      2     30      1 
     6      3      4     ar 
     7      3     31      1 
     8      4      5     ar 
     9      4      7      1 
    10      5      6     ar 
    11      5      9      1 
    12      6     32      1 
    13      7      8      1 
    14      8      9      2 
    15      8     10      1 
    16      9     13      1 
    17     10     11      2 
    18     10     12      1 
    19     11     20      1 
    20     12     21      1 
    21     13     14      1 
    22     14     15      1 
    23     14     19      1 
    24     14     33      1 
    25     15     16      1 
    26     15     34      1 
    27     15     35      1 
    28     16     17      1 
    29     16     36      1 
    30     16     37      1 
    31     17     18      1 
    32     17     38      1 
    33     18     19      1 
    34     18     39      1 
    35     18     40      1 
    36     19     41      1 
    37     19     42      1 
    38     20     21      2 
    39     21     22      1 
    40     22     23      1 
    41     22     43      1 
    42     22     44      1 
    43     23     24     ar 
    44     23     28     ar 
    45     24     25     ar 
    46     24     45      1 
    47     25     26     ar 
    48     25     46      1 
    49     26     27     ar 
    50     26     47      1 
    51     27     28     ar 
    52     27     48      1 
    53     28     49      1 
