@<TRIPOS>MOLECULE
*****
 49  53 0 0 0 
SMALL                                                                       
MULLIKEN                                                                    
                                                                            
@<TRIPOS>ATOM                                                               
      1   C       34.9711 42.3572 66.8827 C.ar 1  UNK   -0.2076 
      2  C1       34.2232 41.8330 67.9247 C.ar 1  UNK   -0.1950 
      3  C2       32.8421 41.7525 67.8550 C.ar 1  UNK   -0.1075 
      4  C3       32.2158 42.2221 66.6937 C.ar 1  UNK   -1.4244 
      5  C4       32.9678 42.7726 65.5879 C.ar 1  UNK   -0.0368 
      6  C5       34.3761 42.8283 65.7122 C.ar 1  UNK   -0.1179 
      7   S       30.5184 42.2480 66.3216  S.3 1  UNK    2.9697 
      8  C6       30.7462 42.9283 64.7576  C.2 1  UNK   -1.4033 
      9  C7       32.0988 43.1724 64.4964  C.2 1  UNK    0.0776 
     10  C8       29.5972 43.1690 63.8826  C.2 1  UNK    0.1284 
     11   N       29.6236 43.7046 62.6929  N.2 1  UNK   -0.0849 
     12   O       28.3627 42.7942 64.3107  O.3 1  UNK   -0.2411 
     13  O1       32.5970 43.6847 63.3199  O.3 1  UNK   -0.2186 
     14  C9       32.7260 45.1028 63.2168  C.3 1  UNK    0.0108 
     15 C10       32.3299 45.5677 61.7974  C.3 1  UNK   -0.2632 
     16 C11       32.6446 47.0599 61.5563  C.3 1  UNK   -0.1567 
     17  N1       34.0409 47.3675 61.8595  N.3 1  UNK   -0.3881 
     18 C12       34.3696 47.0685 63.2512  C.3 1  UNK   -0.1530 
     19 C13       34.1519 45.5751 63.5719  C.3 1  UNK   -0.2809 
     20  N2       28.3097 43.6772 62.2427  N.2 1  UNK   -0.0915 
     21 C14       27.6256 43.1434 63.2221  C.2 1  UNK   -0.0241 
     22 C15       26.1197 42.9320 63.2639  C.3 1  UNK   -0.1488 
     23 C16       25.5420 41.9024 64.2373 C.ar 1  UNK   -0.0891 
     24 C17       24.6904 40.8989 63.7639 C.ar 1  UNK   -0.1719 
     25 C18       24.1470 39.9726 64.6492 C.ar 1  UNK   -0.1850 
     26 C19       24.4541 40.0427 66.0056 C.ar 1  UNK   -0.1882 
     27 C20       25.3010 41.0408 66.4830 C.ar 1  UNK   -0.2022 
     28 C21       25.8436 41.9726 65.6023 C.ar 1  UNK   -0.1895 
     29   H       36.0459 42.3989 66.9784    H 1  UNK    0.1750 
     30  H1       34.7286 41.4775 68.8101    H 1  UNK    0.1668 
     31  H2       32.2703 41.3396 68.6734    H 1  UNK    0.1360 
     32  H3       34.9877 43.2235 64.9156    H 1  UNK    0.1953 
     33  H4       32.0224 45.5695 63.8928    H 1  UNK    0.1179 
     34  H5       32.8238 44.9573 61.0434    H 1  UNK    0.1581 
     35  H6       31.2649 45.4145 61.6339    H 1  UNK    0.1631 
     36  H7       31.9988 47.6921 62.1684    H 1  UNK    0.0824 
     37  H8       32.4422 47.3253 60.5184    H 1  UNK    0.1411 
     38  H9       34.2183 48.3440 61.6716    H 1  UNK    0.1961 
     39 H10       33.7590 47.6952 63.9029    H 1  UNK    0.0827 
     40 H11       35.4079 47.3451 63.4331    H 1  UNK    0.1377 
     41 H12       34.8866 44.9750 63.0342    H 1  UNK    0.1570 
     42 H13       34.3521 45.4129 64.6301    H 1  UNK    0.1347 
     43 H14       25.6486 43.8842 63.4886    H 1  UNK    0.1725 
     44 H15       25.7711 42.7009 62.2567    H 1  UNK    0.1836 
     45 H16       24.4496 40.8427 62.7121    H 1  UNK    0.2075 
     46 H17       23.4888 39.1988 64.2842    H 1  UNK    0.2056 
     47 H18       24.0328 39.3219 66.6904    H 1  UNK    0.2002 
     48 H19       25.5336 41.0933 67.5368    H 1  UNK    0.1878 
     49 H20       26.4936 42.7500 65.9762    H 1  UNK    0.1819 
@<TRIPOS>BOND                                                              
     1      1      2     ar 
     2      1      6     ar 
     3      1     29      1 
     4      2      3     ar 
     5      2     30      1 
     6      3      4     ar 
     7      3     31      1 
     8      4      5     ar 
     9      4      7      1 
    10      5      6     ar 
    11      5      9      1 
    12      6     32      1 
    13      7      8      1 
    14      8      9      2 
    15      8     10      1 
    16      9     13      1 
    17     10     11      2 
    18     10     12      1 
    19     11     20      1 
    20     12     21      1 
    21     13     14      1 
    22     14     15      1 
    23     14     19      1 
    24     14     33      1 
    25     15     16      1 
    26     15     34      1 
    27     15     35      1 
    28     16     17      1 
    29     16     36      1 
    30     16     37      1 
    31     17     18      1 
    32     17     38      1 
    33     18     19      1 
    34     18     39      1 
    35     18     40      1 
    36     19     41      1 
    37     19     42      1 
    38     20     21      2 
    39     21     22      1 
    40     22     23      1 
    41     22     43      1 
    42     22     44      1 
    43     23     24     ar 
    44     23     28     ar 
    45     24     25     ar 
    46     24     45      1 
    47     25     26     ar 
    48     25     46      1 
    49     26     27     ar 
    50     26     47      1 
    51     27     28     ar 
    52     27     48      1 
    53     28     49      1 
