#	Name:			2_23f
#	Creating user name:	Mariana
#	Creation time:		Wed Jan 11 14:39:16 2017

#	Modifying user name:	Mariana
#	Modification time:	Wed Jan 11 14:39:16 2017

@<TRIPOS>MOLECULE
2_23f
   53    57     1     0     0
SMALL
NO_CHARGES


@<TRIPOS>ATOM
      1 C          21.5147   39.5724   63.8929 C.ar      1 UNN         0.0000 
      2 C1         20.6743   40.4488   63.2427 C.ar      1 UNN         0.0000 
      3 C2         21.1468   41.6285   62.6929 C.ar      1 UNN         0.0000 
      4 C3         22.5132   41.9009   62.8051 C.ar      1 UNN         0.0000 
      5 C4         23.4196   40.9881   63.4575 C.ar      1 UNN         0.0000 
      6 C5         22.8832   39.8049   63.9963 C.ar      1 UNN         0.0000 
      7 S          23.3708   43.3049   62.2929 S.3       1 UNN         0.0000 
      8 C6         24.8970   42.7172   62.8363 C.2       1 UNN         0.0000 
      9 C7         24.7753   41.4816   63.4506 C.2       1 UNN         0.0000 
     10 O          25.8043   40.7724   64.0102 O.3       1 UNN         0.0000 
     11 C8         25.9351   40.8202   65.4433 C.3       1 UNN         0.0000 
     12 C9         24.6640   41.0334   66.3257 C.3       1 UNN         0.0000 
     13 C10        24.9871   41.2864   67.8013 C.3       1 UNN         0.0000 
     14 N          25.9447   42.3724   67.8929 N.3       1 UNN         0.0000 
     15 C11        27.2239   42.0271   67.2929 C.3       1 UNN         0.0000 
     16 C12        27.0290   41.8471   65.7853 C.3       1 UNN         0.0000 
     17 C13        26.0826   43.5189   62.6380 C.2       1 UNN         0.0000 
     18 O1         25.9186   44.7530   62.1352 O.3       1 UNN         0.0000 
     19 C14        27.1717   45.2305   62.2453 C.2       1 UNN         0.0000 
     20 N1         28.0612   44.3587   62.6586 N.2       1 UNN         0.0000 
     21 N2         27.3245   43.1974   62.9173 N.2       1 UNN         0.0000 
     22 C15        27.4001   46.6807   61.8743 C.3       1 UNN         0.0000 
     23 C16        26.2407   47.5407   62.4078 C.ar      1 UNN         0.0000 
     24 C17        24.9925   47.5099   61.7738 C.ar      1 UNN         0.0000 
     25 C18        23.9386   48.2688   62.2742 C.ar      1 UNN         0.0000 
     26 C19        24.1261   49.0606   63.4042 C.ar      1 UNN         0.0000 
     27 C20        25.3674   49.1011   64.0350 C.ar      1 UNN         0.0000 
     28 C21        26.4239   48.3422   63.5399 C.ar      1 UNN         0.0000 
     29 O2         27.4453   46.7724   60.4507 O.3       1 UNN         0.0000 
     30 C22        28.6669   46.3725   59.8401 C.3       1 UNN         0.0000 
     31 H          21.1025   38.6693   64.3176 H         1 UNN         0.0000 
     32 H1         19.6239   40.2171   63.1751 H         1 UNN         0.0000 
     33 H2         20.4744   42.3206   62.2067 H         1 UNN         0.0000 
     34 H3         23.5171   39.0922   64.4969 H         1 UNN         0.0000 
     35 H4         26.3323   39.8407   65.7030 H         1 UNN         0.0000 
     36 H5         24.0795   41.8815   65.9669 H         1 UNN         0.0000 
     37 H6         24.0167   40.1615   66.2955 H         1 UNN         0.0000 
     38 H7         25.3842   40.3927   68.2859 H         1 UNN         0.0000 
     39 H8         24.0849   41.5724   68.3436 H         1 UNN         0.0000 
     40 H9         26.0888   42.6361   68.8577 H         1 UNN         0.0000 
     41 H10        27.6240   41.1238   67.7561 H         1 UNN         0.0000 
     42 H11        27.9339   42.8311   67.4887 H         1 UNN         0.0000 
     43 H12        26.7434   42.8096   65.3720 H         1 UNN         0.0000 
     44 H13        27.9746   41.5724   65.3177 H         1 UNN         0.0000 
     45 H14        28.3354   47.0596   62.2928 H         1 UNN         0.0000 
     46 H15        24.8436   46.8922   60.8996 H         1 UNN         0.0000 
     47 H16        22.9748   48.2418   61.7873 H         1 UNN         0.0000 
     48 H17        23.3057   49.6451   63.7919 H         1 UNN         0.0000 
     49 H18        25.5091   49.7177   64.9103 H         1 UNN         0.0000 
     50 H19        27.3823   48.3724   64.0336 H         1 UNN         0.0000 
     51 H20        28.5897   46.4998   58.7596 H         1 UNN         0.0000 
     52 H21        28.8986   45.3254   60.0370 H         1 UNN         0.0000 
     53 H22        29.4994   46.9883   60.1842 H         1 UNN         0.0000 
@<TRIPOS>BOND
     1    1    2 ar   
     2    1    6 ar   
     3    1   31 1    
     4    2    3 ar   
     5    2   32 1    
     6    3    4 ar   
     7    3   33 1    
     8    4    5 ar   
     9    4    7 1    
    10    5    6 ar   
    11    5    9 1    
    12    6   34 1    
    13    7    8 1    
    14    8    9 2    
    15    8   17 1    
    16    9   10 1    
    17   10   11 1    
    18   11   12 1    
    19   11   16 1    
    20   11   35 1    
    21   12   13 1    
    22   12   36 1    
    23   12   37 1    
    24   13   14 1    
    25   13   38 1    
    26   13   39 1    
    27   14   15 1    
    28   14   40 1    
    29   15   16 1    
    30   15   41 1    
    31   15   42 1    
    32   16   43 1    
    33   16   44 1    
    34   17   18 1    
    35   17   21 2    
    36   18   19 1    
    37   19   20 2    
    38   19   22 1    
    39   20   21 1    
    40   22   23 1    
    41   22   29 1    
    42   22   45 1    
    43   23   24 ar   
    44   23   28 ar   
    45   24   25 ar   
    46   24   46 1    
    47   25   26 ar   
    48   25   47 1    
    49   26   27 ar   
    50   26   48 1    
    51   27   28 ar   
    52   27   49 1    
    53   28   50 1    
    54   29   30 1    
    55   30   51 1    
    56   30   52 1    
    57   30   53 1    
@<TRIPOS>SUBSTRUCTURE
     1 UNN         1 GROUP             0 ****  ****    0 ROOT 
