@<TRIPOS>MOLECULE
*****
 59  64 0 0 0 
SMALL                                                                       
CHELPG                                                                    
                                                                            
@<TRIPOS>ATOM                                                               
      1   C       20.6972 40.2896 67.4625 C.ar 1  UNK  -31.0597 
      2  C1       19.9596 41.5244 67.5756 C.ar 1  UNK    3.5713 
      3  C2       20.3849 42.6534 66.9684 C.ar 1  UNK   32.3364 
      4  C3       21.5874 42.6880 66.1831 C.ar 1  UNK  -86.0690 
      5  C4       22.3448 41.3943 66.0924 C.ar 1  UNK  -25.3026 
      6  C5       21.8467 40.2283 66.7492 C.ar 1  UNK   64.8908 
      7   S       22.2743 43.6928 65.4197  S.3 1  UNK   91.1525 
      8  C6       23.4821 43.0384 64.8872  C.2 1  UNK  -45.7162 
      9  C7       23.4701 41.6087 65.3246  C.2 1  UNK   41.7722 
     10   O       24.3738 40.7002 64.8693  O.3 1  UNK    0.0108 
     11 C11       25.1540 40.0557 65.9080  C.3 1  UNK  -86.9224 
     12 C12       26.5473 40.6673 65.9253  C.3 1  UNK   20.9783 
     13 C13       27.4704 39.8660 66.8394  C.3 1  UNK  -187.8149 
     14 N14       27.4893 38.4464 66.5444  N.3 1  UNK   92.1259 
     15 C15       26.1748 37.8405 66.4666  C.3 1  UNK  -230.1430 
     16 C16       25.2210 38.5799 65.5316  C.3 1  UNK  -22.3123 
     17 C13       24.5390 43.5292 64.0810  C.2 1  UNK   13.6428 
     18  O1       24.2414 44.7013 63.3287  O.3 1  UNK  -40.6395 
     19 C14       25.4425 44.9605 62.6344  C.2 1  UNK   73.8567 
     20  N1       26.3430 44.0238 62.9634  N.2 1  UNK   -4.4984 
     21  N2       25.8121 43.1688 63.8309  N.2 1  UNK  -22.7012 
     22 C15       25.4520 46.1632 61.7564  C.3 1  UNK  -123.4841 
     23 C16       26.6948 46.9787 61.9708 C.ar 1  UNK   12.9977 
     24 C17       27.9652 46.4632 61.6919 C.ar 1  UNK  -15.9881 
     25 C18       29.1000 47.2477 61.8944 C.ar 1  UNK    0.5807 
     26 C19       28.9760 48.5516 62.3730 C.ar 1  UNK  -18.3974 
     27 C20       27.7117 49.0708 62.6505 C.ar 1  UNK   16.7487 
     28 C21       26.5754 48.2887 62.4516 C.ar 1  UNK  -25.1929 
     29 C22       25.2607 45.8037 60.3104 C.ar 1  UNK   45.5251 
     30 C23       24.4138 46.6030 59.5304 C.ar 1  UNK  -15.0508 
     31 C24       24.2144 46.3121 58.1826 C.ar 1  UNK    5.9038 
     32 C25       24.8557 45.2187 57.6005 C.ar 1  UNK  -22.1029 
     33 C26       25.6985 44.4202 58.3719 C.ar 1  UNK    9.7664 
     34 C27       25.9032 44.7101 59.7212 C.ar 1  UNK  -37.8901 
     35  H1       20.2925 39.4035 67.9723    H 1  UNK   20.7266 
     36  H2       19.0369 41.5135 68.1735    H 1  UNK   13.0656 
     37  H3       19.8156 43.5920 67.0597    H 1  UNK   -5.6376 
     38  H4       22.4245 39.2972 66.6425    H 1  UNK  -39.4889 
     39  H5       24.6524 40.1815 66.9056    H 1  UNK   17.2083 
     40  H6       26.9510 40.6912 64.8794    H 1  UNK   14.5998 
     41  H7       26.4965 41.7240 66.2903    H 1  UNK    9.8215 
     42  H8       27.1669 40.0678 67.9106    H 1  UNK   64.9638 
     43  H9       28.5239 40.2447 66.7102    H 1  UNK   55.4605 
     44 H10       28.0447 37.9647 67.2267    H 1  UNK   16.7130 
     45 H11       25.6824 37.7673 67.4826    H 1  UNK   68.6951 
     46 H12       26.3148 36.7901 66.0834    H 1  UNK   79.7333 
     47 H13       25.5633 38.4871 64.4686    H 1  UNK   36.7029 
     48 H14       24.2030 38.1203 65.6068    H 1  UNK   34.4822 
     49 H15       24.5601 46.7877 62.0746    H 1  UNK   17.2199 
     50 H16       28.0696 45.4331 61.3159    H 1  UNK   -3.3560 
     51 H17       30.0952 46.8326 61.6764    H 1  UNK   18.2069 
     52 H18       29.8721 49.1689 62.5317    H 1  UNK   17.4081 
     53 H19       27.6093 50.0989 63.0272    H 1  UNK   13.3679 
     54 H20       25.5824 48.7073 62.6726    H 1  UNK   11.1645 
     55 H21       23.9061 47.4689 59.9809    H 1  UNK    4.0168 
     56 H22       23.5501 46.9469 57.5781    H 1  UNK   16.9805 
     57 H23       24.6967 44.9881 56.5371    H 1  UNK   19.0965 
     58 H24       26.2059 43.5555 57.9187    H 1  UNK   15.0737 
     59 H25       26.5725 44.0686 60.3155    H 1  UNK   -0.7995 
@<TRIPOS>BOND                                                              
     1      1      2     ar 
     2      1      6     ar 
     3      1     35      1 
     4      2      3     ar 
     5      2     36      1 
     6      3      4     ar 
     7      3     37      1 
     8      4      5     ar 
     9      4      7      1 
    10      5      6     ar 
    11      5      9      1 
    12      6     38      1 
    13      7      8      1 
    14      8      9      2 
    15      8     17      1 
    16      9     10      1 
    17     10     11      1 
    18     11     12      1 
    19     11     16      1 
    20     11     39      1 
    21     12     13      1 
    22     12     40      1 
    23     12     41      1 
    24     13     14      1 
    25     13     42      1 
    26     13     43      1 
    27     14     15      1 
    28     14     44      1 
    29     15     16      1 
    30     15     45      1 
    31     15     46      1 
    32     16     47      1 
    33     16     48      1 
    34     17     18      1 
    35     17     21      2 
    36     18     19      1 
    37     19     20      2 
    38     19     22      1 
    39     20     21      1 
    40     22     23      1 
    41     22     29      1 
    42     22     49      1 
    43     23     24     ar 
    44     23     28     ar 
    45     24     25     ar 
    46     24     50      1 
    47     25     26     ar 
    48     25     51      1 
    49     26     27     ar 
    50     26     52      1 
    51     27     28     ar 
    52     27     53      1 
    53     28     54      1 
    54     29     30     ar 
    55     29     34     ar 
    56     30     31     ar 
    57     30     55      1 
    58     31     32     ar 
    59     31     56      1 
    60     32     33     ar 
    61     32     57      1 
    62     33     34     ar 
    63     33     58      1 
    64     34     59      1 
