@<TRIPOS>MOLECULE
*****
 50  54 0 0 0 
SMALL                                                                       
LOEWDIN                                                                    
                                                                            
@<TRIPOS>ATOM                                                               
      1   C       20.9895 39.3874 64.4096 C.ar 1  UNK   -0.1488 
      2  C1       20.1177 40.1806 63.5775 C.ar 1  UNK   -0.1418 
      3  C2       20.5680 41.2832 62.9405 C.ar 1  UNK   -0.0706 
      4  C3       21.9304 41.7249 63.0576 C.ar 1  UNK   -1.2148 
      5  C4       22.8139 40.8899 63.9370 C.ar 1  UNK   -0.0580 
      6  C5       22.2886 39.7289 64.5827 C.ar 1  UNK   -0.0639 
      7   S       22.6960 42.8110 62.5120  S.3 1  UNK    2.6262 
      8  C6       24.0536 42.6694 63.0667  C.2 1  UNK   -1.1986 
      9  C7       24.0747 41.4469 63.9355  C.2 1  UNK    0.0381 
     10   O       25.2006 40.9146 64.4825  O.3 1  UNK   -0.1747 
     11  C8       25.5252 41.4235 65.7993  C.3 1  UNK    0.0467 
     12  C9       27.0056 41.1215 65.9991  C.3 1  UNK   -0.1678 
     13 C10       27.4244 41.4885 67.4208  C.3 1  UNK   -0.0776 
     14   N       26.5933 40.8856 68.4457  N.3 1  UNK   -0.2918 
     15 C11       25.1713 41.0936 68.2526  C.3 1  UNK   -0.0802 
     16 C12       24.6915 40.7095 66.8554  C.3 1  UNK   -0.1707 
     17 C13       25.2313 43.4307 62.8787  C.2 1  UNK    0.0960 
     18  O1       25.2293 44.2938 61.7424  O.3 1  UNK   -0.1789 
     19 C14       26.4913 44.9162 61.8041  C.2 1  UNK   -0.1146 
     20  N1       27.1591 44.4517 62.8687  N.2 1  UNK   -0.0433 
     21  N2       26.4078 43.5709 63.5197  N.2 1  UNK   -0.0708 
     22 C15       26.8347 45.8963 60.7269  C.3 1  UNK    0.1553 
     23 C16       26.3593 47.2786 61.0806 C.ar 1  UNK   -0.1088 
     24 C17       25.6799 48.0579 60.1384 C.ar 1  UNK   -0.1279 
     25 C18       25.2745 49.3522 60.4610 C.ar 1  UNK   -0.1426 
     26 C19       25.5496 49.8780 61.7229 C.ar 1  UNK   -0.1210 
     27 C20       26.2374 49.1078 62.6608 C.ar 1  UNK   -0.1212 
     28 C21       26.6439 47.8130 62.3425 C.ar 1  UNK   -0.0976 
     29  O2       26.3398 45.4433 59.4815  O.3 1  UNK   -0.2904 
     30   H       20.5630 38.4976 64.8949    H 1  UNK    0.1146 
     31  H1       19.0724 39.8543 63.4787    H 1  UNK    0.1085 
     32  H2       19.8967 41.8822 62.3050    H 1  UNK    0.0847 
     33  H3       22.9780 39.1414 65.2089    H 1  UNK    0.1266 
     34  H4       25.3392 42.5299 65.8347    H 1  UNK    0.0881 
     35  H5       27.1914 40.0342 65.8036    H 1  UNK    0.0919 
     36  H6       27.6141 41.7142 65.2699    H 1  UNK    0.0862 
     37  H7       27.4389 42.6166 67.5007    H 1  UNK    0.0466 
     38  H8       28.4768 41.1237 67.5914    H 1  UNK    0.0824 
     39  H9       26.8658 41.2286 69.3481    H 1  UNK    0.1342 
     40 H10       24.8715 42.1677 68.4429    H 1  UNK    0.0477 
     41 H11       24.6356 40.4546 69.0102    H 1  UNK    0.0856 
     42 H12       24.7776 39.6017 66.7072    H 1  UNK    0.0916 
     43 H13       23.6121 40.9860 66.7438    H 1  UNK    0.1045 
     44 H14       27.9596 45.9071 60.5879    H 1  UNK    0.1521 
     45 H15       25.4824 47.6555 59.1325    H 1  UNK    0.1204 
     46 H16       24.7432 49.9605 59.7143    H 1  UNK    0.1278 
     47 H17       25.2309 50.8999 61.9759    H 1  UNK    0.1349 
     48 H18       26.4646 49.5222 63.6544    H 1  UNK    0.1407 
     49 H19       27.1945 47.2132 63.0845    H 1  UNK    0.1435 
     50 H20       25.3779 45.3935 59.5476    H 1  UNK    0.2016 
@<TRIPOS>BOND                                                              
     1      1      2     ar 
     2      1      6     ar 
     3      1     30      1 
     4      2      3     ar 
     5      2     31      1 
     6      3      4     ar 
     7      3     32      1 
     8      4      5     ar 
     9      4      7      1 
    10      5      6     ar 
    11      5      9      1 
    12      6     33      1 
    13      7      8      1 
    14      8      9      2 
    15      8     17      1 
    16      9     10      1 
    17     10     11      1 
    18     11     12      1 
    19     11     16      1 
    20     11     34      1 
    21     12     13      1 
    22     12     35      1 
    23     12     36      1 
    24     13     14      1 
    25     13     37      1 
    26     13     38      1 
    27     14     15      1 
    28     14     39      1 
    29     15     16      1 
    30     15     40      1 
    31     15     41      1 
    32     16     42      1 
    33     16     43      1 
    34     17     18      1 
    35     17     21      2 
    36     18     19      1 
    37     19     20      2 
    38     19     22      1 
    39     20     21      1 
    40     22     23      1 
    41     22     29      1 
    42     22     44      1 
    43     23     24     ar 
    44     23     28     ar 
    45     24     25     ar 
    46     24     45      1 
    47     25     26     ar 
    48     25     46      1 
    49     26     27     ar 
    50     26     47      1 
    51     27     28     ar 
    52     27     48      1 
    53     28     49      1 
    54     29     50      1 
