#	Name:			2_23b
#	Creating user name:	Mariana
#	Creation time:		Wed Jan 11 14:38:01 2017

#	Modifying user name:	Mariana
#	Modification time:	Wed Jan 11 14:38:01 2017

@<TRIPOS>MOLECULE
2_23b
   55    59     1     0     0
SMALL
NO_CHARGES


@<TRIPOS>ATOM
      1 C          21.6115   38.9725   64.6930 C.ar      1 UNN         0.0000 
      2 C1         20.5822   39.4398   63.8932 C.ar      1 UNN         0.0000 
      3 C2         20.7498   40.5329   63.0726 C.ar      1 UNN         0.0000 
      4 C3         21.9804   41.1818   63.0928 C.ar      1 UNN         0.0000 
      5 C4         23.0880   40.7068   63.8803 C.ar      1 UNN         0.0000 
      6 C5         22.8771   39.5725   64.6888 C.ar      1 UNN         0.0000 
      7 S          22.4227   42.6504   62.2926 S.3       1 UNN         0.0000 
      8 C6         24.0450   42.6027   62.8326 C.2       1 UNN         0.0000 
      9 C7         24.2650   41.5281   63.6923 C.2       1 UNN         0.0000 
     10 O          25.4468   41.2485   64.3293 O.3       1 UNN         0.0000 
     11 C8         25.8082   42.1804   65.3569 C.3       1 UNN         0.0000 
     12 C9         27.2508   41.8892   65.7835 C.3       1 UNN         0.0000 
     13 C10        27.3126   40.6614   66.7048 C.3       1 UNN         0.0000 
     14 N          26.4633   40.8727   67.8770 N.3       1 UNN         0.0000 
     15 C11        25.0524   41.0206   67.5144 C.3       1 UNN         0.0000 
     16 C12        24.8532   42.2222   66.5782 C.3       1 UNN         0.0000 
     17 C13        24.9716   43.6336   62.4095 C.2       1 UNN         0.0000 
     18 O1         24.4602   44.7408   61.8194 O.3       1 UNN         0.0000 
     19 C14        25.5716   45.5080   61.7727 C.2       1 UNN         0.0000 
     20 N1         26.6742   44.9091   62.1607 N.2       1 UNN         0.0000 
     21 N2         26.2711   43.6465   62.5786 N.2       1 UNN         0.0000 
     22 C15        25.4256   46.9532   61.2866 C.3       1 UNN         0.0000 
     23 C16        24.0017   47.5243   61.5509 C.ar      1 UNN         0.0000 
     24 C17        26.4249   47.8186   62.0918 C.3       1 UNN         0.0000 
     25 C18        23.2533   48.1074   60.5128 C.ar      1 UNN         0.0000 
     26 C19        21.9886   48.6279   60.7707 C.ar      1 UNN         0.0000 
     27 C20        21.4620   48.5714   62.0592 C.ar      1 UNN         0.0000 
     28 C21        22.1954   47.9940   63.0914 C.ar      1 UNN         0.0000 
     29 C22        23.4600   47.4717   62.8431 C.ar      1 UNN         0.0000 
     30 C23        25.8365   46.9718   59.7949 C.3       1 UNN         0.0000 
     31 H          21.4387   38.1187   65.3257 H         1 UNN         0.0000 
     32 H1         19.6274   38.9349   63.9177 H         1 UNN         0.0000 
     33 H2         19.9414   40.8866   62.4569 H         1 UNN         0.0000 
     34 H3         23.6644   39.1777   65.3075 H         1 UNN         0.0000 
     35 H4         25.8172   43.1693   64.9168 H         1 UNN         0.0000 
     36 H5         27.8680   41.7529   64.8947 H         1 UNN         0.0000 
     37 H6         27.6654   42.7569   66.2973 H         1 UNN         0.0000 
     38 H7         28.3423   40.4986   67.0189 H         1 UNN         0.0000 
     39 H8         26.9852   39.7612   66.1831 H         1 UNN         0.0000 
     40 H9         26.5743   40.0982   68.5152 H         1 UNN         0.0000 
     41 H10        24.4300   41.1648   68.4027 H         1 UNN         0.0000 
     42 H11        24.7128   40.0992   67.0448 H         1 UNN         0.0000 
     43 H12        23.8069   42.2857   66.2814 H         1 UNN         0.0000 
     44 H13        25.0320   43.1404   67.1414 H         1 UNN         0.0000 
     45 H14        27.4638   47.5871   61.8557 H         1 UNN         0.0000 
     46 H15        26.3015   47.6868   63.1682 H         1 UNN         0.0000 
     47 H16        26.2620   48.8706   61.8897 H         1 UNN         0.0000 
     48 H17        23.6527   48.1613   59.5119 H         1 UNN         0.0000 
     49 H18        21.4161   49.0777   59.9724 H         1 UNN         0.0000 
     50 H19        20.4802   48.9769   62.2555 H         1 UNN         0.0000 
     51 H20        21.7818   47.9534   64.0888 H         1 UNN         0.0000 
     52 H21        24.0262   47.0288   63.6476 H         1 UNN         0.0000 
     53 H22        26.8432   46.5739   59.6575 H         1 UNN         0.0000 
     54 H23        25.8435   47.9733   59.3801 H         1 UNN         0.0000 
     55 H24        25.1543   46.3751   59.1833 H         1 UNN         0.0000 
@<TRIPOS>BOND
     1    1    2 ar   
     2    1    6 ar   
     3    1   31 1    
     4    2    3 ar   
     5    2   32 1    
     6    3    4 ar   
     7    3   33 1    
     8    4    5 ar   
     9    4    7 1    
    10    5    6 ar   
    11    5    9 1    
    12    6   34 1    
    13    7    8 1    
    14    8    9 2    
    15    8   17 1    
    16    9   10 1    
    17   10   11 1    
    18   11   12 1    
    19   11   16 1    
    20   11   35 1    
    21   12   13 1    
    22   12   36 1    
    23   12   37 1    
    24   13   14 1    
    25   13   38 1    
    26   13   39 1    
    27   14   15 1    
    28   14   40 1    
    29   15   16 1    
    30   15   41 1    
    31   15   42 1    
    32   16   43 1    
    33   16   44 1    
    34   17   18 1    
    35   17   21 2    
    36   18   19 1    
    37   19   20 2    
    38   19   22 1    
    39   20   21 1    
    40   22   23 1    
    41   22   24 1    
    42   22   30 1    
    43   23   25 ar   
    44   23   29 ar   
    45   24   45 1    
    46   24   46 1    
    47   24   47 1    
    48   25   26 ar   
    49   25   48 1    
    50   26   27 ar   
    51   26   49 1    
    52   27   28 ar   
    53   27   50 1    
    54   28   29 ar   
    55   28   51 1    
    56   29   52 1    
    57   30   53 1    
    58   30   54 1    
    59   30   55 1    
@<TRIPOS>SUBSTRUCTURE
     1 UNN         1 GROUP             0 ****  ****    0 ROOT 
