@<TRIPOS>MOLECULE
*****
 53  58 0 0 0 
SMALL                                                                       
LOEWDIN                                                                    
                                                                            
@<TRIPOS>ATOM                                                               
      1   C       21.1553 39.1725 64.2929 C.ar 1  UNK   -0.1538 
      2  C1       20.4240 39.9721 63.4368 C.ar 1  UNK   -0.1366 
      3  C2       20.9902 41.0735 62.8243 C.ar 1  UNK   -0.0751 
      4  C3       22.3373 41.3518 63.0881 C.ar 1  UNK   -1.2201 
      5  C4       23.1379 40.5259 63.9582 C.ar 1  UNK   -0.0843 
      6  C5       22.5027 39.4306 64.5758 C.ar 1  UNK   -0.0599 
      7   S       23.2821 42.6784 62.5116  S.3 1  UNK    2.6300 
      8  C6       24.7319 42.1361 63.2581  C.2 1  UNK   -1.1972 
      9  C7       24.5147 41.0044 64.0344  C.2 1  UNK    0.0594 
     10   O       25.4858 40.3724 64.7780  O.3 1  UNK   -0.1867 
     11 C11       25.3084 40.1963 66.1967  C.3 1  UNK    0.0546 
     12 C12       24.6163 41.3572 66.9463  C.3 1  UNK   -0.2161 
     13 C13       25.4992 42.6121 66.9331  C.3 1  UNK   -0.0723 
     14 N14       26.8239 42.3659 67.4918  N.3 1  UNK   -0.2916 
     15 C15       27.5346 41.2859 66.8166  C.3 1  UNK   -0.0802 
     16 C16       26.7043 39.9872 66.8229  C.3 1  UNK   -0.1921 
     17 C13       25.9739 42.8623 63.0372  C.2 1  UNK    0.0850 
     18  O1       25.9331 43.9589 62.2495  O.3 1  UNK   -0.1897 
     19 C14       27.2323 44.3282 62.2781  C.2 1  UNK   -0.0276 
     20  N1       28.0115 43.5469 62.9892  N.2 1  UNK   -0.0616 
     21  N2       27.1605 42.5675 63.5085  N.2 1  UNK   -0.0619 
     22 C15       27.6188 45.6111 61.5571  C.3 1  UNK    0.0065 
     23 C16       28.9470 45.5888 60.7934 C.ar 1  UNK   -0.0461 
     24 C17       27.2241 46.8584 62.3211  C.3 1  UNK   -0.1900 
     25 C18       26.4840 46.5076 61.0659  C.3 1  UNK   -0.1982 
     26 C19       28.9535 45.5902 59.3959 C.ar 1  UNK   -0.1157 
     27 C20       30.1618 45.5751 58.7046 C.ar 1  UNK   -0.1328 
     28 C21       31.3651 45.5725 59.4062 C.ar 1  UNK   -0.1201 
     29 C22       31.3630 45.5725 60.7997 C.ar 1  UNK   -0.1276 
     30 C23       30.1550 45.5747 61.4927 C.ar 1  UNK   -0.0909 
     31  H1       20.6743 38.3244 64.7580    H 1  UNK    0.1136 
     32  H2       19.3869 39.7374 63.2506    H 1  UNK    0.1079 
     33  H3       20.4063 41.7040 62.1716    H 1  UNK    0.0840 
     34  H4       23.0427 38.7816 65.2443    H 1  UNK    0.1222 
     35  H5       24.7461 39.2761 66.3380    H 1  UNK    0.0720 
     36  H6       23.6347 41.5768 66.5278    H 1  UNK    0.0914 
     37  H7       24.4286 41.0688 67.9814    H 1  UNK    0.0770 
     38  H8       25.0263 43.4157 67.4915    H 1  UNK    0.0724 
     39  H9       25.6219 42.9705 65.9129    H 1  UNK    0.1001 
     40 H10       26.7455 42.1650 68.4790    H 1  UNK    0.1359 
     41 H11       28.4883 41.1344 67.3199    H 1  UNK    0.0801 
     42 H12       27.7676 41.5881 65.7977    H 1  UNK    0.1332 
     43 H13       27.2581 39.2098 66.3006    H 1  UNK    0.0955 
     44 H14       26.5957 39.6277 67.8483    H 1  UNK    0.0722 
     45 H15       26.7015 46.7630 63.2738    H 1  UNK    0.1178 
     46 H16       27.9130 47.6961 62.3182    H 1  UNK    0.1259 
     47 H17       26.6354 47.1355 60.1877    H 1  UNK    0.1224 
     48 H18       25.4500 46.1727 61.1487    H 1  UNK    0.0970 
     49 H19       28.0242 45.6059 58.8500    H 1  UNK    0.1262 
     50 H20       30.1659 45.5732 57.6239    H 1  UNK    0.1309 
     51 H21       32.3017 45.5672 58.8684    H 1  UNK    0.1310 
     52 H22       32.2970 45.5672 61.3416    H 1  UNK    0.1362 
     53 H23       30.1533 45.5696 62.5690    H 1  UNK    0.1476 
@<TRIPOS>BOND                                                              
     1      1      2     ar 
     2      1      6     ar 
     3      1     31      1 
     4      2      3     ar 
     5      2     32      1 
     6      3      4     ar 
     7      3     33      1 
     8      4      5     ar 
     9      4      7      1 
    10      5      6     ar 
    11      5      9      1 
    12      6     34      1 
    13      7      8      1 
    14      8      9      2 
    15      8     17      1 
    16      9     10      1 
    17     10     11      1 
    18     11     12      1 
    19     11     16      1 
    20     11     35      1 
    21     12     13      1 
    22     12     36      1 
    23     12     37      1 
    24     13     14      1 
    25     13     38      1 
    26     13     39      1 
    27     14     15      1 
    28     14     40      1 
    29     15     16      1 
    30     15     41      1 
    31     15     42      1 
    32     16     43      1 
    33     16     44      1 
    34     17     18      1 
    35     17     21      2 
    36     18     19      1 
    37     19     20      2 
    38     19     22      1 
    39     20     21      1 
    40     22     23      1 
    41     22     24      1 
    42     22     25      1 
    43     23     26     ar 
    44     23     30     ar 
    45     24     25      1 
    46     24     45      1 
    47     24     46      1 
    48     25     47      1 
    49     25     48      1 
    50     26     27     ar 
    51     26     49      1 
    52     27     28     ar 
    53     27     50      1 
    54     28     29     ar 
    55     28     51      1 
    56     29     30     ar 
    57     29     52      1 
    58     30     53      1 
