@<TRIPOS>MOLECULE
*****
 53  57 0 0 0 
SMALL                                                                       
MULLIKEN                                                                    
                                                                            
@<TRIPOS>ATOM                                                               
      1   C       21.8654 39.2698 63.6198 C.ar 1  UNK   -0.2097 
      2  C1       20.9582 40.1655 62.9454 C.ar 1  UNK   -0.1937 
      3  C2       21.3458 41.4064 62.5791 C.ar 1  UNK   -0.1063 
      4  C3       22.6675 41.8996 62.8496 C.ar 1  UNK   -1.4439 
      5  C4       23.5768 40.9707 63.6004 C.ar 1  UNK   -0.0535 
      6  C5       23.1246 39.6569 63.9341 C.ar 1  UNK   -0.1161 
      7   S       23.3677 43.1209 62.5591  S.3 1  UNK    2.9951 
      8  C6       24.7099 42.9616 63.1468  C.2 1  UNK   -1.4001 
      9  C7       24.7763 41.6182 63.8101  C.2 1  UNK    0.0884 
     10   O       25.9245 41.1162 64.3379  O.3 1  UNK   -0.2092 
     11  C8       26.0709 41.1646 65.7704  C.3 1  UNK    0.0004 
     12  C9       25.4894 39.9095 66.4102  C.3 1  UNK   -0.2700 
     13 C10       25.7597 39.9198 67.9131  C.3 1  UNK   -0.1536 
     14   N       25.2855 41.1234 68.5691  N.3 1  UNK   -0.3981 
     15 C11       25.7280 42.3532 67.9401  C.3 1  UNK   -0.1606 
     16 C12       25.4778 42.3959 66.4331  C.3 1  UNK   -0.2782 
     17 C13       25.8481 43.8007 63.0846  C.2 1  UNK    0.1362 
     18  O1       25.7471 44.8634 62.1392  O.3 1  UNK   -0.2268 
     19 C14       26.9788 45.5284 62.2595  C.2 1  UNK   -0.0686 
     20  N1       27.7255 44.9033 63.1828  N.2 1  UNK   -0.0901 
     21  N2       27.0549 43.8727 63.6821  N.2 1  UNK   -0.0843 
     22 C15       27.2202 46.7425 61.4183  C.3 1  UNK    0.1277 
     23 C16       26.5413 47.9466 62.0074 C.ar 1  UNK   -0.0949 
     24 C17       25.5477 48.6429 61.3146 C.ar 1  UNK   -0.1694 
     25 C18       24.9615 49.7727 61.8862 C.ar 1  UNK   -0.2160 
     26 C19       25.3628 50.2087 63.1479 C.ar 1  UNK   -0.1831 
     27 C20       26.3553 49.5141 63.8411 C.ar 1  UNK   -0.1887 
     28 C21       26.9455 48.3865 63.2747 C.ar 1  UNK   -0.1635 
     29  O2       26.7238 46.5355 60.0963  O.3 1  UNK   -0.3116 
     30 C22       27.5208 45.6342 59.3399  C.3 1  UNK   -0.2048 
     31   H       21.5013 38.2610 63.8630    H 1  UNK    0.1727 
     32  H1       19.9423 39.8011 62.7359    H 1  UNK    0.1664 
     33  H2       20.6516 42.0841 62.0573    H 1  UNK    0.1362 
     34  H3       23.8384 38.9795 64.4279    H 1  UNK    0.1888 
     35  H4       27.1954 41.1682 65.8785    H 1  UNK    0.1433 
     36  H5       24.3850 39.8732 66.2210    H 1  UNK    0.1504 
     37  H6       25.9515 38.9970 65.9570    H 1  UNK    0.1384 
     38  H7       26.8683 39.7605 68.0718    H 1  UNK    0.0920 
     39  H8       25.2223 39.0497 68.3858    H 1  UNK    0.1369 
     40  H9       25.5653 41.1164 69.5325    H 1  UNK    0.1940 
     41 H10       26.8290 42.5440 68.1151    H 1  UNK    0.0906 
     42 H11       25.1582 43.1956 68.4250    H 1  UNK    0.1382 
     43 H12       24.3777 42.4366 66.2240    H 1  UNK    0.1539 
     44 H13       25.9469 43.3229 66.0188    H 1  UNK    0.1595 
     45 H14       28.3368 46.9240 61.3811    H 1  UNK    0.1874 
     46 H15       25.2357 48.3020 60.3150    H 1  UNK    0.1977 
     47 H16       24.1832 50.3210 61.3357    H 1  UNK    0.1883 
     48 H17       24.9005 51.1004 63.5963    H 1  UNK    0.1998 
     49 H18       26.6749 49.8566 64.8364    H 1  UNK    0.2069 
     50 H19       27.7277 47.8369 63.8219    H 1  UNK    0.2084 
     51 H20       27.0037 45.5797 58.3494    H 1  UNK    0.1567 
     52 H21       27.5463 44.6301 59.8306    H 1  UNK    0.1301 
     53 H22       28.5586 46.0320 59.2204    H 1  UNK    0.1107 
@<TRIPOS>BOND                                                              
     1      1      2     ar 
     2      1      6     ar 
     3      1     31      1 
     4      2      3     ar 
     5      2     32      1 
     6      3      4     ar 
     7      3     33      1 
     8      4      5     ar 
     9      4      7      1 
    10      5      6     ar 
    11      5      9      1 
    12      6     34      1 
    13      7      8      1 
    14      8      9      2 
    15      8     17      1 
    16      9     10      1 
    17     10     11      1 
    18     11     12      1 
    19     11     16      1 
    20     11     35      1 
    21     12     13      1 
    22     12     36      1 
    23     12     37      1 
    24     13     14      1 
    25     13     38      1 
    26     13     39      1 
    27     14     15      1 
    28     14     40      1 
    29     15     16      1 
    30     15     41      1 
    31     15     42      1 
    32     16     43      1 
    33     16     44      1 
    34     17     18      1 
    35     17     21      2 
    36     18     19      1 
    37     19     20      2 
    38     19     22      1 
    39     20     21      1 
    40     22     23      1 
    41     22     29      1 
    42     22     45      1 
    43     23     24     ar 
    44     23     28     ar 
    45     24     25     ar 
    46     24     46      1 
    47     25     26     ar 
    48     25     47      1 
    49     26     27     ar 
    50     26     48      1 
    51     27     28     ar 
    52     27     49      1 
    53     28     50      1 
    54     29     30      1 
    55     30     51      1 
    56     30     52      1 
    57     30     53      1 
