@<TRIPOS>MOLECULE
*****
 52  56 0 0 0 
SMALL                                                                       
MULLIKEN                                                                    
                                                                            
@<TRIPOS>ATOM                                                               
      1   C       30.8976 46.2400 59.6586 C.ar 1  UNK   -0.1980 
      2  C1       32.1984 45.8524 60.1467 C.ar 1  UNK   -0.2026 
      3  C2       32.3339 45.0911 61.2546 C.ar 1  UNK   -0.0975 
      4  C3       31.1982 44.6307 62.0040 C.ar 1  UNK   -1.4336 
      5  C4       29.8576 45.0522 61.4792 C.ar 1  UNK   -0.0319 
      6  C5       29.7691 45.8533 60.3001 C.ar 1  UNK   -0.1290 
      7   S       31.0192 43.8223 63.1825  S.3 1  UNK    3.0072 
      8  C6       29.5561 43.7589 63.3907  C.2 1  UNK   -1.3946 
      9  C7       28.8858 44.5193 62.3010  C.2 1  UNK    0.0524 
     10   O       27.5434 44.5578 62.0703  O.3 1  UNK   -0.2283 
     11  C8       26.8124 45.4545 62.9377  C.3 1  UNK    0.0028 
     12  C9       25.3420 45.1342 62.6878  C.3 1  UNK   -0.3020 
     13 C10       24.4579 46.1340 63.4337  C.3 1  UNK   -0.1620 
     14   N       24.7560 47.5323 63.1907  N.3 1  UNK   -0.3913 
     15 C11       26.1654 47.8359 63.3514  C.3 1  UNK   -0.1620 
     16 C12       27.1235 46.9075 62.6053  C.3 1  UNK   -0.3308 
     17 C13       28.9014 43.0529 64.4240  C.2 1  UNK    0.1668 
     18  O1       27.5201 43.0156 64.5865  O.3 1  UNK   -0.0971 
     19 C14       27.3445 42.1970 65.7304  C.2 1  UNK   -0.0177 
     20  N1       28.5481 41.8034 66.1827  N.2 1  UNK   -0.0964 
     21  N2       29.4898 42.3111 65.4073  N.2 1  UNK   -0.2808 
     22 C15       25.9590 41.9345 66.2035  C.3 1  UNK   -0.0464 
     23 C16       25.2790 40.9102 65.3455 C.ar 1  UNK   -0.0927 
     24 C17       25.1614 43.2272 66.2488  C.3 1  UNK   -0.3456 
     25 C18       25.1884 41.0789 63.9589 C.ar 1  UNK   -0.1739 
     26 C19       24.5346 40.1276 63.1780 C.ar 1  UNK   -0.1927 
     27 C20       23.9668 39.0017 63.7747 C.ar 1  UNK   -0.1910 
     28 C21       24.0575 38.8278 65.1553 C.ar 1  UNK   -0.1939 
     29 C22       24.7124 39.7767 65.9395 C.ar 1  UNK   -0.1779 
     30   H       30.8555 46.8570 58.7494    H 1  UNK    0.1748 
     31  H1       33.0774 46.1971 59.5832    H 1  UNK    0.1689 
     32  H2       33.3313 44.7974 61.6187    H 1  UNK    0.1393 
     33  H3       28.7634 46.1304 59.9495    H 1  UNK    0.1896 
     34  H4       27.0834 45.2313 64.0063    H 1  UNK    0.1251 
     35  H5       25.1358 45.1681 61.5875    H 1  UNK    0.1376 
     36  H6       25.1225 44.0950 63.0426    H 1  UNK    0.1440 
     37  H7       24.5672 45.9536 64.5413    H 1  UNK    0.1478 
     38  H8       23.3826 45.9483 63.1585    H 1  UNK    0.1411 
     39  H9       24.4614 47.7827 62.2628    H 1  UNK    0.2037 
     40 H10       26.3960 47.7831 64.4533    H 1  UNK    0.1461 
     41 H11       26.3399 48.8948 63.0131    H 1  UNK    0.1446 
     42 H12       27.0368 47.0603 61.4983    H 1  UNK    0.1348 
     43 H13       28.1787 47.1432 62.8946    H 1  UNK    0.1542 
     44 H14       26.0431 41.5296 67.2569    H 1  UNK    0.1728 
     45 H15       25.6415 43.9506 66.9504    H 1  UNK    0.1342 
     46 H16       24.1228 43.0174 66.5995    H 1  UNK    0.1339 
     47 H17       25.1133 43.6937 65.2337    H 1  UNK    0.1364 
     48 H18       25.6466 41.9641 63.4869    H 1  UNK    0.2299 
     49 H19       24.4704 40.2659 62.0887    H 1  UNK    0.1999 
     50 H20       23.4513 38.2517 63.1574    H 1  UNK    0.1937 
     51 H21       23.6144 37.9395 65.6288    H 1  UNK    0.1949 
     52 H22       24.7846 39.6300 67.0277    H 1  UNK    0.1932 
@<TRIPOS>BOND                                                              
     1      1      2     ar 
     2      1      6     ar 
     3      1     30      1 
     4      2      3     ar 
     5      2     31      1 
     6      3      4     ar 
     7      3     32      1 
     8      4      5     ar 
     9      4      7      1 
    10      5      6     ar 
    11      5      9      1 
    12      6     33      1 
    13      7      8      1 
    14      8      9      2 
    15      8     17      1 
    16      9     10      1 
    17     10     11      1 
    18     11     12      1 
    19     11     16      1 
    20     11     34      1 
    21     12     13      1 
    22     12     35      1 
    23     12     36      1 
    24     13     14      1 
    25     13     37      1 
    26     13     38      1 
    27     14     15      1 
    28     14     39      1 
    29     15     16      1 
    30     15     40      1 
    31     15     41      1 
    32     16     42      1 
    33     16     43      1 
    34     17     18      1 
    35     17     21      2 
    36     18     19      1 
    37     19     20      2 
    38     19     22      1 
    39     20     21      1 
    40     22     23      1 
    41     22     24      1 
    42     22     44      1 
    43     23     25     ar 
    44     23     29     ar 
    45     24     45      1 
    46     24     46      1 
    47     24     47      1 
    48     25     26     ar 
    49     25     48      1 
    50     26     27     ar 
    51     26     49      1 
    52     27     28     ar 
    53     27     50      1 
    54     28     29     ar 
    55     28     51      1 
    56     29     52      1 
