@<TRIPOS>MOLECULE
*****
 52  56 0 0 0 
SMALL                                                                       
MULLIKEN                                                                    
                                                                            
@<TRIPOS>ATOM                                                               
      1   C       30.6847 46.5870 59.9125 C.ar 1  UNK   -0.1981 
      2  C1       31.9721 46.5649 60.4224 C.ar 1  UNK   -0.2026 
      3  C2       32.2993 45.7992 61.5292 C.ar 1  UNK   -0.0975 
      4  C3       31.2842 45.0450 62.1287 C.ar 1  UNK   -1.4336 
      5  C4       29.9219 45.0619 61.6336 C.ar 1  UNK   -0.0319 
      6  C5       29.6500 45.8517 60.4898 C.ar 1  UNK   -0.1290 
      7   S       31.4037 43.9724 63.4929  S.3 1  UNK    3.0072 
      8  C6       29.7201 43.5724 63.4929  C.2 1  UNK   -1.3946 
      9  C7       29.0436 44.2152 62.4391  C.2 1  UNK    0.0524 
     10   O       27.7043 44.0797 62.1537  O.3 1  UNK   -0.2283 
     11  C8       26.8039 45.1003 62.6227  C.3 1  UNK    0.0028 
     12  C9       25.3991 44.7957 62.0542  C.3 1  UNK   -0.3020 
     13 C10       24.3199 45.8335 62.4488  C.3 1  UNK   -0.1620 
     14   N       24.7478 47.2116 62.2104  N.3 1  UNK   -0.3913 
     15 C11       26.0304 47.5269 62.8372  C.3 1  UNK   -0.1620 
     16 C12       27.1273 46.5839 62.3063  C.3 1  UNK   -0.3308 
     17 C13       29.1944 42.6921 64.5455  C.2 1  UNK    0.1668 
     18  O1       27.8494 42.5470 64.6712  O.3 1  UNK   -0.0971 
     19 C14       27.8042 41.7869 65.8040  C.2 1  UNK   -0.0177 
     20  N1       28.9751 41.4610 66.2929  N.2 1  UNK   -0.0964 
     21  N2       29.9021 42.0604 65.4515  N.2 1  UNK   -0.2808 
     22 C15       26.4388 41.4503 66.4139  C.3 1  UNK   -0.0464 
     23 C16       25.2914 40.9860 65.5041 C.ar 1  UNK   -0.0927 
     24 C17       25.9517 42.5459 67.3746  C.3 1  UNK   -0.3455 
     25 C18       25.0897 41.5726 64.2477 C.ar 1  UNK   -0.1739 
     26 C19       24.0347 41.1509 63.4446 C.ar 1  UNK   -0.1927 
     27 C20       23.1754 40.1523 63.8929 C.ar 1  UNK   -0.1910 
     28 C21       23.3676 39.5724 65.1437 C.ar 1  UNK   -0.1939 
     29 C22       24.4238 39.9843 65.9470 C.ar 1  UNK   -0.1779 
     30   H       30.4754 47.1927 59.0422    H 1  UNK    0.1748 
     31  H1       32.7398 47.1530 59.9414    H 1  UNK    0.1689 
     32  H2       33.3088 45.7829 61.9101    H 1  UNK    0.1393 
     33  H3       28.6613 45.8883 60.0632    H 1  UNK    0.1895 
     34  H4       26.7917 44.9707 63.7041    H 1  UNK    0.1251 
     35  H5       25.4650 44.7724 60.9680    H 1  UNK    0.1376 
     36  H6       25.0706 43.8011 62.3478    H 1  UNK    0.1440 
     37  H7       24.0365 45.7312 63.4929    H 1  UNK    0.1478 
     38  H8       23.4118 45.6540 61.8725    H 1  UNK    0.1410 
     39  H9       24.7937 47.3943 61.2175    H 1  UNK    0.2037 
     40 H10       25.9398 47.4500 63.9216    H 1  UNK    0.1461 
     41 H11       26.2854 48.5624 62.6103    H 1  UNK    0.1446 
     42 H12       27.1734 46.7354 61.2301    H 1  UNK    0.1348 
     43 H13       28.0983 46.8810 62.6929    H 1  UNK    0.1542 
     44 H14       26.6470 40.6015 67.0698    H 1  UNK    0.1728 
     45 H15       26.7795 43.0296 67.8929    H 1  UNK    0.1342 
     46 H16       25.2812 42.1348 68.1314    H 1  UNK    0.1339 
     47 H17       25.3904 43.3093 66.8469    H 1  UNK    0.1364 
     48 H18       25.7411 42.3523 63.8994    H 1  UNK    0.2299 
     49 H19       23.8793 41.6022 62.4756    H 1  UNK    0.1999 
     50 H20       22.3547 39.8293 63.2701    H 1  UNK    0.1937 
     51 H21       22.6957 38.8011 65.4913    H 1  UNK    0.1949 
     52 H22       24.5686 39.5329 66.9184    H 1  UNK    0.1932 
@<TRIPOS>BOND                                                              
     1      1      2     ar 
     2      1      6     ar 
     3      1     30      1 
     4      2      3     ar 
     5      2     31      1 
     6      3      4     ar 
     7      3     32      1 
     8      4      5     ar 
     9      4      7      1 
    10      5      6     ar 
    11      5      9      1 
    12      6     33      1 
    13      7      8      1 
    14      8      9      2 
    15      8     17      1 
    16      9     10      1 
    17     10     11      1 
    18     11     12      1 
    19     11     16      1 
    20     11     34      1 
    21     12     13      1 
    22     12     35      1 
    23     12     36      1 
    24     13     14      1 
    25     13     37      1 
    26     13     38      1 
    27     14     15      1 
    28     14     39      1 
    29     15     16      1 
    30     15     40      1 
    31     15     41      1 
    32     16     42      1 
    33     16     43      1 
    34     17     18      1 
    35     17     21      2 
    36     18     19      1 
    37     19     20      2 
    38     19     22      1 
    39     20     21      1 
    40     22     23      1 
    41     22     24      1 
    42     22     44      1 
    43     23     25     ar 
    44     23     29     ar 
    45     24     45      1 
    46     24     46      1 
    47     24     47      1 
    48     25     26     ar 
    49     25     48      1 
    50     26     27     ar 
    51     26     49      1 
    52     27     28     ar 
    53     27     50      1 
    54     28     29     ar 
    55     28     51      1 
    56     29     52      1 
