@<TRIPOS>MOLECULE
*****
 55  59 0 0 0 
SMALL                                                                       
LOEWDIN                                                                    
                                                                            
@<TRIPOS>ATOM                                                               
      1   C       21.7287 38.7631 64.3951 C.ar 1  UNK   -0.1517 
      2  C1       20.6604 39.3047 63.5911 C.ar 1  UNK   -0.1415 
      3  C2       20.7462 40.5409 63.0536 C.ar 1  UNK   -0.0707 
      4  C3       21.8954 41.3787 63.2555 C.ar 1  UNK   -1.2266 
      5  C4       22.9860 40.8009 64.1094 C.ar 1  UNK   -0.0480 
      6  C5       22.8485 39.4830 64.6435 C.ar 1  UNK   -0.0594 
      7   S       22.2813 42.6933 62.8193  S.3 1  UNK    2.6525 
      8  C6       23.6064 42.9405 63.4108  C.2 1  UNK   -1.2263 
      9  C7       24.0015 41.7295 64.1999  C.2 1  UNK    0.0321 
     10   O       25.2237 41.5475 64.7687  O.3 1  UNK   -0.1777 
     11  C8       25.3492 42.0976 66.1070  C.3 1  UNK    0.0390 
     12  C9       26.8340 42.3645 66.3154  C.3 1  UNK   -0.1421 
     13 C10       27.6337 41.0755 66.4785  C.3 1  UNK   -0.0711 
     14   N       27.0865 40.1876 67.4881  N.3 1  UNK   -0.3068 
     15 C11       25.6854 39.8764 67.2779  C.3 1  UNK   -0.0664 
     16 C12       24.8063 41.1163 67.1366  C.3 1  UNK   -0.1718 
     17 C13       24.4804 44.0485 63.2930  C.2 1  UNK    0.0816 
     18  O1       24.2835 44.8543 62.1351  O.3 1  UNK   -0.1765 
     19 C14       25.2481 45.8722 62.2731  C.2 1  UNK   -0.0579 
     20  N1       25.9423 45.6620 63.4018  N.2 1  UNK   -0.0746 
     21  N2       25.4841 44.5776 64.0175  N.2 1  UNK   -0.0713 
     22 C15       25.3145 46.9210 61.2056  C.3 1  UNK    0.0751 
     23 C16       24.0798 47.7839 61.2899 C.ar 1  UNK   -0.0704 
     24 C17       26.5500 47.7943 61.4286  C.3 1  UNK   -0.2001 
     25 C18       23.2806 48.0519 60.1743 C.ar 1  UNK   -0.1227 
     26 C19       22.1587 48.8738 60.2915 C.ar 1  UNK   -0.1306 
     27 C20       21.8228 49.4352 61.5214 C.ar 1  UNK   -0.1317 
     28 C21       22.6157 49.1732 62.6394 C.ar 1  UNK   -0.1357 
     29 C22       23.7363 48.3545 62.5250 C.ar 1  UNK   -0.1245 
     30 C23       25.4545 46.2132 59.8609  C.3 1  UNK   -0.2031 
     31   H       21.6023 37.7468 64.7955    H 1  UNK    0.1134 
     32  H1       19.7743 38.6743 63.4291    H 1  UNK    0.1072 
     33  H2       19.9281 40.9468 62.4377    H 1  UNK    0.0831 
     34  H3       23.6813 39.0889 65.2465    H 1  UNK    0.1288 
     35  H4       24.7760 43.0626 66.1645    H 1  UNK    0.0744 
     36  H5       27.2402 42.9285 65.4369    H 1  UNK    0.1023 
     37  H6       26.9427 43.0044 67.2289    H 1  UNK    0.0898 
     38  H7       28.6831 41.3351 66.7951    H 1  UNK    0.0799 
     39  H8       27.6916 40.5760 65.4658    H 1  UNK    0.0600 
     40  H9       27.6178 39.3362 67.5088    H 1  UNK    0.1446 
     41 H10       25.3363 39.2817 68.1687    H 1  UNK    0.0784 
     42 H11       25.5322 39.2378 66.3566    H 1  UNK    0.0534 
     43 H12       23.7778 40.7882 66.8326    H 1  UNK    0.0819 
     44 H13       24.7329 41.6445 68.1220    H 1  UNK    0.0813 
     45 H14       27.4737 47.1687 61.3948    H 1  UNK    0.0998 
     46 H15       26.4973 48.3041 62.4202    H 1  UNK    0.0857 
     47 H16       26.6053 48.5690 60.6268    H 1  UNK    0.0809 
     48 H17       23.5263 47.6258 59.1902    H 1  UNK    0.1373 
     49 H18       21.5416 49.0813 59.4048    H 1  UNK    0.1346 
     50 H19       20.9402 50.0852 61.6105    H 1  UNK    0.1326 
     51 H20       22.3595 49.6169 63.6129    H 1  UNK    0.1341 
     52 H21       24.3619 48.1533 63.4095    H 1  UNK    0.1406 
     53 H22       26.3409 45.5337 59.8845    H 1  UNK    0.0989 
     54 H23       25.6036 46.9617 59.0464    H 1  UNK    0.0827 
     55 H24       24.5457 45.6036 59.6427    H 1  UNK    0.0732 
@<TRIPOS>BOND                                                              
     1      1      2     ar 
     2      1      6     ar 
     3      1     31      1 
     4      2      3     ar 
     5      2     32      1 
     6      3      4     ar 
     7      3     33      1 
     8      4      5     ar 
     9      4      7      1 
    10      5      6     ar 
    11      5      9      1 
    12      6     34      1 
    13      7      8      1 
    14      8      9      2 
    15      8     17      1 
    16      9     10      1 
    17     10     11      1 
    18     11     12      1 
    19     11     16      1 
    20     11     35      1 
    21     12     13      1 
    22     12     36      1 
    23     12     37      1 
    24     13     14      1 
    25     13     38      1 
    26     13     39      1 
    27     14     15      1 
    28     14     40      1 
    29     15     16      1 
    30     15     41      1 
    31     15     42      1 
    32     16     43      1 
    33     16     44      1 
    34     17     18      1 
    35     17     21      2 
    36     18     19      1 
    37     19     20      2 
    38     19     22      1 
    39     20     21      1 
    40     22     23      1 
    41     22     24      1 
    42     22     30      1 
    43     23     25     ar 
    44     23     29     ar 
    45     24     45      1 
    46     24     46      1 
    47     24     47      1 
    48     25     26     ar 
    49     25     48      1 
    50     26     27     ar 
    51     26     49      1 
    52     27     28     ar 
    53     27     50      1 
    54     28     29     ar 
    55     28     51      1 
    56     29     52      1 
    57     30     53      1 
    58     30     54      1 
    59     30     55      1 
