@<TRIPOS>MOLECULE
*****
 53  58 0 0 0 
SMALL                                                                       
MULLIKEN                                                                    
                                                                            
@<TRIPOS>ATOM                                                               
      1   C       23.0846 38.0980 63.4013 C.ar 1  UNK   -0.2127 
      2  C1       23.0137 38.2856 61.9726 C.ar 1  UNK   -0.1897 
      3  C2       23.5950 39.3490 61.3766 C.ar 1  UNK   -0.1113 
      4  C3       24.3092 40.3451 62.1260 C.ar 1  UNK   -1.4312 
      5  C4       24.3549 40.1375 63.6134 C.ar 1  UNK   -0.0740 
      6  C5       23.7286 38.9908 64.1898 C.ar 1  UNK   -0.1119 
      7   S       25.0312 41.5411 61.7912  S.3 1  UNK    2.9762 
      8  C6       25.4923 42.1018 63.0738  C.2 1  UNK   -1.3945 
      9  C7       25.0524 41.1889 64.1713  C.2 1  UNK    0.1019 
     10   O       25.4539 41.3742 65.4577  O.3 1  UNK   -0.2202 
     11 C11       24.3774 41.3983 66.4311  C.3 1  UNK    0.0112 
     12 C12       24.2405 42.8171 66.9696  C.3 1  UNK   -0.3270 
     13 C13       25.4294 43.2061 67.8485  C.3 1  UNK   -0.1602 
     14 N14       25.7567 42.2574 68.8969  N.3 1  UNK   -0.3816 
     15 C15       25.9134 40.9125 68.3783  C.3 1  UNK   -0.1749 
     16 C16       24.7485 40.4043 67.5279  C.3 1  UNK   -0.3003 
     17 C13       26.2411 43.2696 63.3638  C.2 1  UNK    0.1236 
     18  O1       27.1159 43.7011 62.3271  O.3 1  UNK   -0.2479 
     19 C14       27.7042 44.8658 62.8567  C.2 1  UNK    0.0066 
     20  N1       27.2174 45.0761 64.0919  N.2 1  UNK   -0.0791 
     21  N2       26.3387 44.1286 64.3960  N.2 1  UNK   -0.0742 
     22 C15       28.6765 45.5918 62.0345  C.3 1  UNK   -0.0088 
     23 C16       28.3054 45.7029 60.6076 C.ar 1  UNK   -0.0562 
     24 C17       30.1410 45.4620 62.4156  C.3 1  UNK   -0.3033 
     25 C18       29.4210 46.7435 62.6854  C.3 1  UNK   -0.3089 
     26 C19       27.3483 46.6431 60.2042 C.ar 1  UNK   -0.1740 
     27 C20       26.9988 46.7539 58.8595 C.ar 1  UNK   -0.1964 
     28 C21       27.6007 45.9299 57.9084 C.ar 1  UNK   -0.1855 
     29 C22       28.5544 44.9929 58.3051 C.ar 1  UNK   -0.1930 
     30 C23       28.9067 44.8782 59.6491 C.ar 1  UNK   -0.1513 
     31  H1       22.6009 37.2059 63.8244    H 1  UNK    0.1738 
     32  H2       22.4702 37.5313 61.3859    H 1  UNK    0.1666 
     33  H3       23.5369 39.4855 60.2850    H 1  UNK    0.1358 
     34  H4       23.8004 38.8640 65.2812    H 1  UNK    0.1839 
     35  H5       23.4139 41.0813 65.9447    H 1  UNK    0.1268 
     36  H6       24.1780 43.5357 66.1132    H 1  UNK    0.1466 
     37  H7       23.2868 42.8798 67.5546    H 1  UNK    0.1277 
     38  H8       25.2259 44.2044 68.3249    H 1  UNK    0.1241 
     39  H9       26.3363 43.3094 67.1864    H 1  UNK    0.1594 
     40 H10       25.0338 42.2651 69.5956    H 1  UNK    0.1874 
     41 H11       26.0713 40.2126 69.2446    H 1  UNK    0.1330 
     42 H12       26.8433 40.9036 67.7412    H 1  UNK    0.2019 
     43 H13       25.0382 39.4269 67.0647    H 1  UNK    0.1521 
     44 H14       23.8446 40.2358 68.1677    H 1  UNK    0.1213 
     45 H15       30.4085 44.8066 63.2643    H 1  UNK    0.1784 
     46 H16       30.8868 45.4197 61.6015    H 1  UNK    0.1899 
     47 H17       29.6410 47.6288 62.0613    H 1  UNK    0.1841 
     48 H18       29.1747 47.0181 63.7276    H 1  UNK    0.1518 
     49 H19       26.8774 47.2969 60.9542    H 1  UNK    0.1903 
     50 H20       26.2504 47.4978 58.5487    H 1  UNK    0.1958 
     51 H21       27.3281 46.0233 56.8470    H 1  UNK    0.1963 
     52 H22       29.0359 44.3468 57.5564    H 1  UNK    0.2028 
     53 H23       29.6621 44.1412 59.9615    H 1  UNK    0.2188 
@<TRIPOS>BOND                                                              
     1      1      2     ar 
     2      1      6     ar 
     3      1     31      1 
     4      2      3     ar 
     5      2     32      1 
     6      3      4     ar 
     7      3     33      1 
     8      4      5     ar 
     9      4      7      1 
    10      5      6     ar 
    11      5      9      1 
    12      6     34      1 
    13      7      8      1 
    14      8      9      2 
    15      8     17      1 
    16      9     10      1 
    17     10     11      1 
    18     11     12      1 
    19     11     16      1 
    20     11     35      1 
    21     12     13      1 
    22     12     36      1 
    23     12     37      1 
    24     13     14      1 
    25     13     38      1 
    26     13     39      1 
    27     14     15      1 
    28     14     40      1 
    29     15     16      1 
    30     15     41      1 
    31     15     42      1 
    32     16     43      1 
    33     16     44      1 
    34     17     18      1 
    35     17     21      2 
    36     18     19      1 
    37     19     20      2 
    38     19     22      1 
    39     20     21      1 
    40     22     23      1 
    41     22     24      1 
    42     22     25      1 
    43     23     26     ar 
    44     23     30     ar 
    45     24     25      1 
    46     24     45      1 
    47     24     46      1 
    48     25     47      1 
    49     25     48      1 
    50     26     27     ar 
    51     26     49      1 
    52     27     28     ar 
    53     27     50      1 
    54     28     29     ar 
    55     28     51      1 
    56     29     30     ar 
    57     29     52      1 
    58     30     53      1 
