@<TRIPOS>MOLECULE
*****
 49  53 0 0 0 
SMALL                                                                       
MULLIKEN                                                                    
                                                                            
@<TRIPOS>ATOM                                                               
      1   C       23.8341 42.0475 64.9382 C.ar 1  UNK   -0.2043 
      2  C1       23.7156 42.1002 66.3751 C.ar 1  UNK   -0.1935 
      3  C2       24.7932 42.3165 67.1602 C.ar 1  UNK   -0.1067 
      4  C3       26.1075 42.5065 66.6107 C.ar 1  UNK   -1.4332 
      5  C4       26.2030 42.4567 65.1145 C.ar 1  UNK   -0.0379 
      6  C5       25.0324 42.2190 64.3309 C.ar 1  UNK   -0.1203 
      7   S       27.4130 42.7365 67.1638  S.3 1  UNK    2.9854 
      8  C6       28.3261 42.8474 66.0081  C.2 1  UNK   -1.4016 
      9  C7       27.5201 42.6526 64.7590  C.2 1  UNK    0.0698 
     10   O       28.0536 42.5365 63.5131  O.3 1  UNK   -0.2157 
     11  C8       28.2067 43.7934 62.8079  C.3 1  UNK    0.0092 
     12  C9       26.8754 44.2051 62.1904  C.3 1  UNK   -0.3354 
     13 C10       27.0788 45.3897 61.2458  C.3 1  UNK   -0.1553 
     14   N       28.1057 45.2061 60.2377  N.3 1  UNK   -0.4037 
     15 C11       29.3584 44.7395 60.8023  C.3 1  UNK   -0.1591 
     16 C12       29.2530 43.5293 61.7310  C.3 1  UNK   -0.3136 
     17 C13       29.7223 43.0515 65.9359  C.2 1  UNK    0.1423 
     18  O1       30.4272 42.8482 67.1581  O.3 1  UNK   -0.2333 
     19 C14       31.7596 43.1171 66.8082  C.2 1  UNK   -0.1087 
     20  N1       31.8271 43.4438 65.5110  N.2 1  UNK   -0.0379 
     21  N2       30.6106 43.4109 64.9840  N.2 1  UNK   -0.0775 
     22 C15       32.8119 43.0082 67.8969  C.3 1  UNK    0.4881 
     23 C16       33.8822 42.0261 67.4397 C.ar 1  UNK   -0.1728 
     24   F       33.3271 44.2557 68.1998    F 1  UNK   -0.1505 
     25 C17       33.9268 40.7326 67.9647 C.ar 1  UNK   -0.1598 
     26 C18       34.9015 39.8405 67.5192 C.ar 1  UNK   -0.2081 
     27 C19       35.8272 40.2393 66.5546 C.ar 1  UNK   -0.1697 
     28 C20       35.7808 41.5328 66.0336 C.ar 1  UNK   -0.1905 
     29 C21       34.8087 42.4301 66.4737 C.ar 1  UNK   -0.1405 
     30  F1       32.2289 42.6599 69.1024    F 1  UNK   -0.1634 
     31   H       22.9197 41.8624 64.3561    H 1  UNK    0.1766 
     32  H1       22.7157 41.9565 66.8094    H 1  UNK    0.1691 
     33  H2       24.6948 42.3538 68.2567    H 1  UNK    0.1382 
     34  H3       25.1533 42.1813 63.2372    H 1  UNK    0.1948 
     35  H4       28.5675 44.5851 63.5174    H 1  UNK    0.1278 
     36  H5       26.4410 43.3342 61.6342    H 1  UNK    0.1406 
     37  H6       26.1523 44.4822 62.9989    H 1  UNK    0.1409 
     38  H7       27.3643 46.2934 61.8553    H 1  UNK    0.1424 
     39  H8       26.1075 45.6172 60.7255    H 1  UNK    0.1403 
     40  H9       27.7838 44.5504 59.5471    H 1  UNK    0.2094 
     41 H10       29.8074 45.5979 61.3781    H 1  UNK    0.1424 
     42 H11       30.0562 44.4899 59.9555    H 1  UNK    0.1449 
     43 H12       28.9686 42.6122 61.1541    H 1  UNK    0.1425 
     44 H13       30.2450 43.3358 62.2121    H 1  UNK    0.1682 
     45 H14       33.1985 40.4222 68.7296    H 1  UNK    0.1819 
     46 H15       34.9374 38.8211 67.9307    H 1  UNK    0.1911 
     47 H16       36.5940 39.5327 66.2035    H 1  UNK    0.2052 
     48 H17       36.5088 41.8478 65.2712    H 1  UNK    0.2129 
     49 H18       34.7612 43.4510 66.0623    H 1  UNK    0.2289 
@<TRIPOS>BOND                                                              
     1      1      2     ar 
     2      1      6     ar 
     3      1     31      1 
     4      2      3     ar 
     5      2     32      1 
     6      3      4     ar 
     7      3     33      1 
     8      4      5     ar 
     9      4      7      1 
    10      5      6     ar 
    11      5      9      1 
    12      6     34      1 
    13      7      8      1 
    14      8      9      2 
    15      8     17      1 
    16      9     10      1 
    17     10     11      1 
    18     11     12      1 
    19     11     16      1 
    20     11     35      1 
    21     12     13      1 
    22     12     36      1 
    23     12     37      1 
    24     13     14      1 
    25     13     38      1 
    26     13     39      1 
    27     14     15      1 
    28     14     40      1 
    29     15     16      1 
    30     15     41      1 
    31     15     42      1 
    32     16     43      1 
    33     16     44      1 
    34     17     18      1 
    35     17     21      2 
    36     18     19      1 
    37     19     20      2 
    38     19     22      1 
    39     20     21      1 
    40     22     23      1 
    41     22     24      1 
    42     22     30      1 
    43     23     25     ar 
    44     23     29     ar 
    45     25     26     ar 
    46     25     45      1 
    47     26     27     ar 
    48     26     46      1 
    49     27     28     ar 
    50     27     47      1 
    51     28     29     ar 
    52     28     48      1 
    53     29     49      1 
