@<TRIPOS>MOLECULE
*****
 50  54 0 0 0 
SMALL                                                                       
CHELPG                                                                    
                                                                            
@<TRIPOS>ATOM                                                               
      1   C       21.3700 39.2673 64.2928 C.ar 1  UNK  -65.0091 
      2  C1       20.4794 40.0280 63.5456 C.ar 1  UNK   42.8266 
      3  C2       20.8971 41.1627 62.8600 C.ar 1  UNK  -30.3480 
      4  C3       22.2521 41.5110 62.9354 C.ar 1  UNK   26.4425 
      5  C4       23.2095 40.6997 63.6408 C.ar 1  UNK  -68.0671 
      6  C5       22.7319 39.5724 64.3370 C.ar 1  UNK   65.2849 
      7   S       23.0448 42.9172 62.2944  S.3 1  UNK   -4.5035 
      8  C6       24.6157 42.3821 62.7647  C.2 1  UNK  -11.9155 
      9  C7       24.5508 41.2070 63.4957  C.2 1  UNK   31.7289 
     10   O       25.6243 40.5516 64.0331  O.3 1  UNK   10.0337 
     11  C8       25.9563 40.8451 65.3922  C.3 1  UNK  -30.3205 
     12  C9       24.7888 41.1443 66.3725  C.3 1  UNK  -21.8775 
     13 C10       25.2897 41.6533 67.7225  C.3 1  UNK  -62.0428 
     14   N       26.1960 42.7722 67.4928  N.3 1  UNK    5.3469 
     15 C11       27.4206 42.3448 66.8427  C.3 1  UNK  -78.8731 
     16 C12       27.0378 41.9454 65.4263  C.3 1  UNK  -91.0685 
     17 C13       25.8002 43.1559 62.4043  C.2 1  UNK   73.5911 
     18  O1       25.6233 44.4124 61.9482  O.3 1  UNK  -36.0255 
     19 C14       26.9151 44.8237 61.8930  C.2 1  UNK  -24.4794 
     20  N1       27.8026 43.8932 62.1426  N.2 1  UNK   70.7739 
     21  N2       27.0526 42.7734 62.4929  N.2 1  UNK  -40.1876 
     22 C15       27.1812 46.2787 61.5677  C.3 1  UNK  -308.1014 
     23 C16       25.9923 47.1714 61.9380 C.ar 1  UNK  117.6943 
     24 C17       24.8394 47.1722 61.1438 C.ar 1  UNK  -54.6074 
     25 C18       23.7549 47.9728 61.4945 C.ar 1  UNK  -16.5757 
     26 C19       23.8189 48.7722 62.6358 C.ar 1  UNK    1.9621 
     27 C20       24.9661 48.7729 63.4284 C.ar 1  UNK  -34.0421 
     28 C21       26.0514 47.9738 63.0811 C.ar 1  UNK   15.1377 
     29  O2       27.5740 46.3722 60.2131  O.3 1  UNK  125.3178 
     30   H       21.0058 38.4018 64.8270    H 1  UNK   27.0023 
     31  H1       19.4374 39.7453 63.5170    H 1  UNK    4.6646 
     32  H2       20.1934 41.7679 62.3043    H 1  UNK    8.3420 
     33  H3       23.4081 38.9470 64.8977    H 1  UNK  -12.4374 
     34  H4       26.4275 39.9293 65.7419    H 1  UNK   29.7552 
     35  H5       24.1211 41.9050 65.9678    H 1  UNK   -1.1779 
     36  H6       24.1877 40.2525 66.5416    H 1  UNK   -6.7421 
     37  H7       25.7974 40.8712 68.2920    H 1  UNK   28.8224 
     38  H8       24.4441 41.9739 68.3302    H 1  UNK   38.5172 
     39  H9       26.4232 43.1872 68.3877    H 1  UNK   15.3196 
     40 H10       27.8879 41.5226 67.3882    H 1  UNK   41.9594 
     41 H11       28.1306 43.1721 66.8299    H 1  UNK   36.7887 
     42 H12       26.6571 42.8413 64.9438    H 1  UNK   15.7423 
     43 H13       27.9243 41.6321 64.8769    H 1  UNK   31.7163 
     44 H14       28.0486 46.6154 62.1381    H 1  UNK   72.3751 
     45 H15       24.7867 46.5510 60.2606    H 1  UNK   23.6740 
     46 H16       22.8628 47.9750 60.8834    H 1  UNK   16.8748 
     47 H17       22.9773 49.3918 62.9070    H 1  UNK   14.8813 
     48 H18       25.0115 49.3923 64.3127    H 1  UNK   21.0656 
     49 H19       26.9372 47.9728 63.6996    H 1  UNK   -3.3453 
     50 H20       26.8618 46.0376 59.6609    H 1  UNK  -11.8938 
@<TRIPOS>BOND                                                              
     1      1      2     ar 
     2      1      6     ar 
     3      1     30      1 
     4      2      3     ar 
     5      2     31      1 
     6      3      4     ar 
     7      3     32      1 
     8      4      5     ar 
     9      4      7      1 
    10      5      6     ar 
    11      5      9      1 
    12      6     33      1 
    13      7      8      1 
    14      8      9      2 
    15      8     17      1 
    16      9     10      1 
    17     10     11      1 
    18     11     12      1 
    19     11     16      1 
    20     11     34      1 
    21     12     13      1 
    22     12     35      1 
    23     12     36      1 
    24     13     14      1 
    25     13     37      1 
    26     13     38      1 
    27     14     15      1 
    28     14     39      1 
    29     15     16      1 
    30     15     40      1 
    31     15     41      1 
    32     16     42      1 
    33     16     43      1 
    34     17     18      1 
    35     17     21      2 
    36     18     19      1 
    37     19     20      2 
    38     19     22      1 
    39     20     21      1 
    40     22     23      1 
    41     22     29      1 
    42     22     44      1 
    43     23     24     ar 
    44     23     28     ar 
    45     24     25     ar 
    46     24     45      1 
    47     25     26     ar 
    48     25     46      1 
    49     26     27     ar 
    50     26     47      1 
    51     27     28     ar 
    52     27     48      1 
    53     28     49      1 
    54     29     50      1 
