@<TRIPOS>MOLECULE
*****
 59  64 0 0 0 
SMALL                                                                       
LOEWDIN                                                                    
                                                                            
@<TRIPOS>ATOM                                                               
      1   C       20.6932 38.3724 65.2778 C.ar 1  UNK   -0.1475 
      2  C1       19.8540 38.9487 64.3409 C.ar 1  UNK   -0.1457 
      3  C2       20.2974 39.9452 63.4783 C.ar 1  UNK   -0.0675 
      4  C3       21.6329 40.3579 63.5812 C.ar 1  UNK   -1.2138 
      5  C4       22.5379 39.7633 64.5339 C.ar 1  UNK   -0.0522 
      6  C5       22.0239 38.7724 65.4093 C.ar 1  UNK   -0.0638 
      7   S       22.4610 41.6074 62.6929  S.3 1  UNK    2.6251 
      8  C6       23.9669 41.3267 63.4705  C.2 1  UNK   -1.2075 
      9  C7       23.8668 40.3110 64.4186  C.2 1  UNK    0.0345 
     10   O       24.8960 39.8541 65.1900  O.3 1  UNK   -0.1876 
     11 C11       25.1681 40.5104 66.4260  C.3 1  UNK    0.0603 
     12 C12       24.7039 41.9868 66.5584  C.3 1  UNK   -0.1670 
     13 C13       25.4576 42.7724 67.6266  C.3 1  UNK   -0.0759 
     14 N14       26.9002 42.6224 67.4929  N.3 1  UNK   -0.2791 
     15 C15       27.2804 41.2354 67.7029  C.3 1  UNK   -0.0759 
     16 C16       26.6907 40.3509 66.6047  C.3 1  UNK   -0.1634 
     17 C13       25.1508 42.1360 63.1357  C.2 1  UNK    0.0761 
     18  O1       24.9643 43.3241 62.5014  O.3 1  UNK   -0.1814 
     19 C14       26.2065 43.8628 62.6613  C.2 1  UNK   -0.0439 
     20  N1       27.0980 43.0410 63.1580  N.2 1  UNK   -0.0704 
     21  N2       26.3842 41.9018 63.5038  N.2 1  UNK   -0.0538 
     22 C15       26.4071 45.3601 62.3545  C.3 1  UNK    0.0449 
     23 C16       27.6390 45.6754 61.4777 C.ar 1  UNK   -0.0778 
     24 C17       27.4921 46.3724 60.2741 C.ar 1  UNK   -0.1179 
     25 C18       28.6082 46.6574 59.4909 C.ar 1  UNK   -0.1342 
     26 C19       29.8732 46.2587 59.9088 C.ar 1  UNK   -0.1227 
     27 C20       30.0288 45.5724 61.1089 C.ar 1  UNK   -0.1272 
     28 C21       28.9158 45.2780 61.8929 C.ar 1  UNK   -0.1012 
     29 C22       25.1464 46.2080 62.0741 C.ar 1  UNK   -0.0608 
     30 C23       24.9851 47.4468 62.7072 C.ar 1  UNK   -0.1091 
     31 C24       23.8510 48.2150 62.4579 C.ar 1  UNK   -0.1223 
     32 C25       22.8760 47.7518 61.5771 C.ar 1  UNK   -0.1244 
     33 C26       23.0316 46.5210 60.9428 C.ar 1  UNK   -0.1445 
     34 C27       24.1639 45.7490 61.1889 C.ar 1  UNK   -0.1288 
     35  H1       20.3046 37.6062 65.9320    H 1  UNK    0.1141 
     36  H2       18.8290 38.6262 64.2929    H 1  UNK    0.1069 
     37  H3       19.6271 40.3840 62.7583    H 1  UNK    0.0845 
     38  H4       22.6575 38.3098 66.1513    H 1  UNK    0.1274 
     39  H5       24.6673 39.9214 67.1955    H 1  UNK    0.0642 
     40  H6       24.8623 42.5366 65.6386    H 1  UNK    0.0908 
     41  H7       23.6311 42.0282 66.7508    H 1  UNK    0.0768 
     42  H8       25.1437 42.4596 68.6233    H 1  UNK    0.0440 
     43  H9       25.2239 43.8254 67.4929    H 1  UNK    0.0769 
     44 H10       27.3517 43.2007 68.1876    H 1  UNK    0.1402 
     45 H11       26.9595 40.9139 68.6929    H 1  UNK    0.0393 
     46 H12       28.3669 41.1724 67.6678    H 1  UNK    0.0863 
     47 H13       27.1936 40.6210 65.6789    H 1  UNK    0.1240 
     48 H14       26.9424 39.3064 66.7934    H 1  UNK    0.0843 
     49 H15       26.7341 45.7397 63.3247    H 1  UNK    0.1158 
     50 H16       26.5144 46.6885 59.9430    H 1  UNK    0.1330 
     51 H17       28.4914 47.1915 58.5591    H 1  UNK    0.1300 
     52 H18       30.7368 46.4845 59.3004    H 1  UNK    0.1299 
     53 H19       31.0127 45.2664 61.4320    H 1  UNK    0.1363 
     54 H20       29.0418 44.7462 62.8228    H 1  UNK    0.1559 
     55 H21       25.7400 47.8089 63.3903    H 1  UNK    0.1419 
     56 H22       23.7274 49.1703 62.9468    H 1  UNK    0.1383 
     57 H23       21.9971 48.3494 61.3844    H 1  UNK    0.1331 
     58 H24       22.2744 46.1661 60.2588    H 1  UNK    0.1243 
     59 H25       24.2819 44.7984 60.6929    H 1  UNK    0.1284 
@<TRIPOS>BOND                                                              
     1      1      2     ar 
     2      1      6     ar 
     3      1     35      1 
     4      2      3     ar 
     5      2     36      1 
     6      3      4     ar 
     7      3     37      1 
     8      4      5     ar 
     9      4      7      1 
    10      5      6     ar 
    11      5      9      1 
    12      6     38      1 
    13      7      8      1 
    14      8      9      2 
    15      8     17      1 
    16      9     10      1 
    17     10     11      1 
    18     11     12      1 
    19     11     16      1 
    20     11     39      1 
    21     12     13      1 
    22     12     40      1 
    23     12     41      1 
    24     13     14      1 
    25     13     42      1 
    26     13     43      1 
    27     14     15      1 
    28     14     44      1 
    29     15     16      1 
    30     15     45      1 
    31     15     46      1 
    32     16     47      1 
    33     16     48      1 
    34     17     18      1 
    35     17     21      2 
    36     18     19      1 
    37     19     20      2 
    38     19     22      1 
    39     20     21      1 
    40     22     23      1 
    41     22     29      1 
    42     22     49      1 
    43     23     24     ar 
    44     23     28     ar 
    45     24     25     ar 
    46     24     50      1 
    47     25     26     ar 
    48     25     51      1 
    49     26     27     ar 
    50     26     52      1 
    51     27     28     ar 
    52     27     53      1 
    53     28     54      1 
    54     29     30     ar 
    55     29     34     ar 
    56     30     31     ar 
    57     30     55      1 
    58     31     32     ar 
    59     31     56      1 
    60     32     33     ar 
    61     32     57      1 
    62     33     34     ar 
    63     33     58      1 
    64     34     59      1 
