@<TRIPOS>MOLECULE
*****
 49  53 0 0 0 
SMALL                                                                       
MULLIKEN                                                                    
                                                                            
@<TRIPOS>ATOM                                                               
      1   C       24.6104 41.2970 64.8470 C.ar 1  UNK   -0.2043 
      2  C1       24.7801 40.8904 66.1603 C.ar 1  UNK   -0.1934 
      3  C2       26.0011 41.0112 66.8027 C.ar 1  UNK   -0.1067 
      4  C3       27.0680 41.5634 66.0825 C.ar 1  UNK   -1.4332 
      5  C4       26.9214 42.0084 64.7153 C.ar 1  UNK   -0.0379 
      6  C5       25.6527 41.8545 64.1066 C.ar 1  UNK   -0.1202 
      7   S       28.6993 41.8159 66.6057  S.3 1  UNK    2.9853 
      8  C6       29.2214 42.4752 65.1080  C.2 1  UNK   -1.4016 
      9  C7       28.1697 42.5473 64.1910  C.2 1  UNK    0.0699 
     10   O       28.2759 43.0251 62.9070  O.3 1  UNK   -0.2157 
     11  C8       27.8849 44.3885 62.6950  C.3 1  UNK    0.0093 
     12  C9       26.4104 44.5432 62.2634  C.3 1  UNK   -0.3354 
     13 C10       26.0773 45.9600 61.7539  C.3 1  UNK   -0.1552 
     14   N       26.9915 46.3733 60.6942  N.3 1  UNK   -0.4037 
     15 C11       28.3815 46.3717 61.1388  C.3 1  UNK   -0.1590 
     16 C12       28.8126 44.9676 61.6067  C.3 1  UNK   -0.3136 
     17 C13       30.6303 42.8686 64.9290  C.2 1  UNK    0.1423 
     18  O1       31.5158 42.5588 65.9151  O.3 1  UNK   -0.2333 
     19 C14       32.6686 43.0119 65.3567  C.2 1  UNK   -0.1087 
     20  N1       32.5200 43.5725 64.1780  N.2 1  UNK   -0.0379 
     21  N2       31.1548 43.4835 63.8935  N.2 1  UNK   -0.0775 
     22 C15       33.9770 42.8718 66.1535  C.3 1  UNK    0.4881 
     23 C16       34.0597 41.7247 67.1886 C.ar 1  UNK   -0.1728 
     24   F       35.0008 42.7723 65.2989    F 1  UNK   -0.1505 
     25 C17       33.0571 41.5722 68.1518 C.ar 1  UNK   -0.1598 
     26 C18       33.1385 40.5481 69.0919 C.ar 1  UNK   -0.2081 
     27 C19       34.2209 39.6723 69.0772 C.ar 1  UNK   -0.1696 
     28 C20       35.2247 39.8166 68.1219 C.ar 1  UNK   -0.1905 
     29 C21       35.1484 40.8399 67.1786 C.ar 1  UNK   -0.1405 
     30  F1       34.1961 43.9869 66.8521    F 1  UNK   -0.1635 
     31   H       23.6428 41.1774 64.3819    H 1  UNK    0.1766 
     32  H1       23.9428 40.4649 66.6932    H 1  UNK    0.1691 
     33  H2       26.1231 40.6829 67.8253    H 1  UNK    0.1382 
     34  H3       25.4876 42.1544 63.0835    H 1  UNK    0.1948 
     35  H4       28.0238 44.9594 63.6148    H 1  UNK    0.1278 
     36  H5       26.1763 43.8107 61.4932    H 1  UNK    0.1406 
     37  H6       25.7447 44.3310 63.0930    H 1  UNK    0.1409 
     38  H7       26.1280 46.6822 62.5708    H 1  UNK    0.1424 
     39  H8       25.0580 45.9890 61.3668    H 1  UNK    0.1403 
     40  H9       26.8677 45.8067 59.8663    H 1  UNK    0.2094 
     41 H10       28.4962 47.0953 61.9466    H 1  UNK    0.1424 
     42 H11       29.0150 46.7067 60.3175    H 1  UNK    0.1449 
     43 H12       28.8241 44.2957 60.7472    H 1  UNK    0.1425 
     44 H13       29.8379 45.0094 61.9726    H 1  UNK    0.1682 
     45 H14       32.2203 42.2503 68.1718    H 1  UNK    0.1819 
     46 H15       32.3612 40.4346 69.8332    H 1  UNK    0.1911 
     47 H16       34.2822 38.8782 69.8073    H 1  UNK    0.2052 
     48 H17       36.0620 39.1358 68.1129    H 1  UNK    0.2129 
     49 H18       35.9311 40.9494 66.4429    H 1  UNK    0.2289 
@<TRIPOS>BOND                                                              
     1      1      2     ar 
     2      1      6     ar 
     3      1     31      1 
     4      2      3     ar 
     5      2     32      1 
     6      3      4     ar 
     7      3     33      1 
     8      4      5     ar 
     9      4      7      1 
    10      5      6     ar 
    11      5      9      1 
    12      6     34      1 
    13      7      8      1 
    14      8      9      2 
    15      8     17      1 
    16      9     10      1 
    17     10     11      1 
    18     11     12      1 
    19     11     16      1 
    20     11     35      1 
    21     12     13      1 
    22     12     36      1 
    23     12     37      1 
    24     13     14      1 
    25     13     38      1 
    26     13     39      1 
    27     14     15      1 
    28     14     40      1 
    29     15     16      1 
    30     15     41      1 
    31     15     42      1 
    32     16     43      1 
    33     16     44      1 
    34     17     18      1 
    35     17     21      2 
    36     18     19      1 
    37     19     20      2 
    38     19     22      1 
    39     20     21      1 
    40     22     23      1 
    41     22     24      1 
    42     22     30      1 
    43     23     25     ar 
    44     23     29     ar 
    45     25     26     ar 
    46     25     45      1 
    47     26     27     ar 
    48     26     46      1 
    49     27     28     ar 
    50     27     47      1 
    51     28     29     ar 
    52     28     48      1 
    53     29     49      1 
