@<TRIPOS>MOLECULE
*****
 55  59 0 0 0 
SMALL                                                                       
LOEWDIN                                                                    
                                                                            
@<TRIPOS>ATOM                                                               
      1   C       20.8916 40.0100 65.3308 C.ar 1  UNK   -0.1506 
      2  C1       19.9319 41.0616 65.0982 C.ar 1  UNK   -0.1419 
      3  C2       20.3170 42.2752 64.6467 C.ar 1  UNK   -0.0707 
      4  C3       21.6934 42.5835 64.3763 C.ar 1  UNK   -1.2244 
      5  C4       22.6734 41.4772 64.6361 C.ar 1  UNK   -0.0616 
      6  C5       22.2126 40.2102 65.1085 C.ar 1  UNK   -0.0625 
      7   S       22.4012 43.7389 63.8910  S.3 1  UNK    2.6367 
      8  C6       23.8205 43.3573 63.8619  C.2 1  UNK   -1.2046 
      9  C7       23.9351 41.9377 64.3258  C.2 1  UNK    0.0423 
     10   O       25.0854 41.2123 64.2819  O.3 1  UNK   -0.1811 
     11 C11       25.8892 41.2951 65.4847  C.3 1  UNK    0.0479 
     12 C12       27.3027 40.9186 65.0577  C.3 1  UNK   -0.1642 
     13 C13       28.2099 40.8247 66.2823  C.3 1  UNK   -0.0684 
     14 N14       27.6952 39.9535 67.3219  N.3 1  UNK   -0.3050 
     15 C15       26.3274 40.2397 67.7094  C.3 1  UNK   -0.0722 
     16 C16       25.3684 40.3106 66.5239  C.3 1  UNK   -0.1696 
     17 C13       24.9727 44.0746 63.4558  C.2 1  UNK    0.0854 
     18  O1       24.7669 45.0281 62.4195  O.3 1  UNK   -0.1799 
     19 C14       26.0386 45.6009 62.2407  C.2 1  UNK   -0.0555 
     20  N1       26.9027 45.0168 63.0882  N.2 1  UNK   -0.0777 
     21  N2       26.2686 44.1083 63.8197  N.2 1  UNK   -0.0667 
     22 C15       26.2079 46.6501 61.2076  C.3 1  UNK    0.0045 
     23 C16       25.1917 47.7062 61.2728 C.ar 1  UNK   -0.1901 
     24 C17       24.1679 47.9832 60.3467 C.ar 1  UNK   -0.0781 
     25  N3       23.4875 49.1122 60.8420 N.pl3 1  UNK   -0.0897 
     26  N4       24.0125 49.5496 61.9966  N.2 1  UNK   -0.0899 
     27 C18       25.0565 48.7263 62.2993 C.ar 1  UNK   -0.0914 
     28 C19       25.9296 48.8718 63.4794  C.3 1  UNK   -0.1416 
     29 C20       23.8243 47.3039 59.0877  C.3 1  UNK   -0.1454 
     30 C21       22.3767 49.7368 60.1688  C.3 1  UNK   -0.0593 
     31  H1       20.5132 39.0431 65.6927    H 1  UNK    0.1138 
     32  H2       18.8742 40.8400 65.3007    H 1  UNK    0.1075 
     33  H3       19.5776 43.0726 64.4709    H 1  UNK    0.0821 
     34  H4       22.9672 39.4258 65.2749    H 1  UNK    0.1270 
     35  H5       25.8642 42.3424 65.8875    H 1  UNK    0.0785 
     36  H6       27.2770 39.9407 64.5120    H 1  UNK    0.0884 
     37  H7       27.7058 41.6958 64.3600    H 1  UNK    0.0881 
     38  H8       28.3910 41.8738 66.6638    H 1  UNK    0.0434 
     39  H9       29.2051 40.4047 65.9616    H 1  UNK    0.0814 
     40 H10       28.2912 39.9993 68.1275    H 1  UNK    0.1422 
     41 H11       26.2453 41.2103 68.2846    H 1  UNK    0.0415 
     42 H12       25.9960 39.4111 68.3971    H 1  UNK    0.0869 
     43 H13       25.2588 39.2993 66.0531    H 1  UNK    0.1054 
     44 H14       24.3573 40.6316 66.8828    H 1  UNK    0.0993 
     45 H15       27.2313 47.1061 61.3359    H 1  UNK    0.1297 
     46 H16       26.1809 46.1456 60.2005    H 1  UNK    0.1018 
     47 H17       25.3629 49.2423 64.3688    H 1  UNK    0.0952 
     48 H18       26.7494 49.6010 63.2562    H 1  UNK    0.0901 
     49 H19       26.3903 47.8830 63.7282    H 1  UNK    0.0869 
     50 H20       24.3661 46.3277 59.0231    H 1  UNK    0.0944 
     51 H21       24.1195 47.9350 58.2105    H 1  UNK    0.0939 
     52 H22       22.7244 47.1064 59.0223    H 1  UNK    0.0601 
     53 H23       22.1263 50.7216 60.6442    H 1  UNK    0.1238 
     54 H24       21.4817 49.0604 60.2233    H 1  UNK    0.0743 
     55 H25       22.6489 49.8992 59.0915    H 1  UNK    0.0892 
@<TRIPOS>BOND                                                              
     1      1      2     ar 
     2      1      6     ar 
     3      1     31      1 
     4      2      3     ar 
     5      2     32      1 
     6      3      4     ar 
     7      3     33      1 
     8      4      5     ar 
     9      4      7      1 
    10      5      6     ar 
    11      5      9      1 
    12      6     34      1 
    13      7      8      1 
    14      8      9      2 
    15      8     17      1 
    16      9     10      1 
    17     10     11      1 
    18     11     12      1 
    19     11     16      1 
    20     11     35      1 
    21     12     13      1 
    22     12     36      1 
    23     12     37      1 
    24     13     14      1 
    25     13     38      1 
    26     13     39      1 
    27     14     15      1 
    28     14     40      1 
    29     15     16      1 
    30     15     41      1 
    31     15     42      1 
    32     16     43      1 
    33     16     44      1 
    34     17     18      1 
    35     17     21      2 
    36     18     19      1 
    37     19     20      2 
    38     19     22      1 
    39     20     21      1 
    40     22     23      1 
    41     22     45      1 
    42     22     46      1 
    43     23     24     ar 
    44     23     27     ar 
    45     24     25     ar 
    46     24     29      1 
    47     25     26     ar 
    48     25     30      1 
    49     26     27     ar 
    50     27     28      1 
    51     28     47      1 
    52     28     48      1 
    53     28     49      1 
    54     29     50      1 
    55     29     51      1 
    56     29     52      1 
    57     30     53      1 
    58     30     54      1 
    59     30     55      1 
