@<TRIPOS>MOLECULE
*****
 55  59 0 0 0 
SMALL                                                                       
MULLIKEN                                                                    
                                                                            
@<TRIPOS>ATOM                                                               
      1   C       21.5229 39.1730 64.2929 C.ar 1  UNK   -0.2101 
      2  C1       20.5360 39.8749 63.6144 C.ar 1  UNK   -0.1946 
      3  C2       20.8240 41.0413 62.9281 C.ar 1  UNK   -0.1066 
      4  C3       22.1419 41.5040 62.9453 C.ar 1  UNK   -1.4352 
      5  C4       23.2050 40.7724 63.5900 C.ar 1  UNK   -0.0501 
      6  C5       22.8629 39.5836 64.2761 C.ar 1  UNK   -0.1160 
      7   S       22.7614 42.9812 62.2929  S.3 1  UNK    2.9826 
      8  C6       24.3898 42.6297 62.7074  C.2 1  UNK   -1.4041 
      9  C7       24.4885 41.4256 63.4025  C.2 1  UNK    0.0864 
     10   O       25.6547 40.8796 63.8670  O.3 1  UNK   -0.2148 
     11 C11       26.0117 41.0844 65.2370  C.3 1  UNK    0.0036 
     12 C12       24.9431 41.6132 66.2337  C.3 1  UNK   -0.2694 
     13 C13       25.5551 41.8889 67.6183  C.3 1  UNK   -0.1540 
     14 N14       26.7113 42.7715 67.4929  N.3 1  UNK   -0.3956 
     15 C15       27.7830 42.1752 66.7116  C.3 1  UNK   -0.1593 
     16 C16       27.2742 41.9723 65.2830  C.3 1  UNK   -0.2772 
     17 C13       25.4515 43.5647 62.3364  C.2 1  UNK    0.1240 
     18  O1       25.0908 44.7604 61.8174  O.3 1  UNK   -0.2370 
     19 C14       26.3040 45.3514 61.7178  C.2 1  UNK   -0.0296 
     20  N1       27.3178 44.5941 62.0573  N.2 1  UNK   -0.0963 
     21  N2       26.7441 43.3898 62.4665  N.2 1  UNK   -0.0793 
     22 C15       26.3524 46.7846 61.2461  C.3 1  UNK   -0.0902 
     23 C16       25.2076 47.5731 61.8550 C.ar 1  UNK   -0.1967 
     24 C17       23.9100 47.7636 61.3529 C.ar 1  UNK   -0.0535 
     25  N3       23.2753 48.5339 62.2524 N.pl3 1  UNK   -0.1916 
     26  N4       23.9862 48.8703 63.2870  N.2 1  UNK   -0.0982 
     27 C18       25.1785 48.3218 63.1066 C.ar 1  UNK   -0.0769 
     28 C19       26.2697 48.5192 64.1328  C.3 1  UNK   -0.2789 
     29 C20       23.2266 47.2750 60.0894  C.3 1  UNK   -0.2830 
     30 C21       21.8948 49.0090 62.1787  C.3 1  UNK   -0.1866 
     31  H1       21.2534 38.2722 64.8251    H 1  UNK    0.1739 
     32  H2       19.5197 39.5099 63.6333    H 1  UNK    0.1659 
     33  H3       20.0479 41.5901 62.4154    H 1  UNK    0.1334 
     34  H4       23.6169 39.0060 64.7906    H 1  UNK    0.1899 
     35  H5       26.2978 40.0840 65.5663    H 1  UNK    0.1344 
     36  H6       24.4959 42.5354 65.8594    H 1  UNK    0.1423 
     37  H7       24.1297 40.8975 66.3454    H 1  UNK    0.1429 
     38  H8       25.8562 40.9601 68.1062    H 1  UNK    0.0909 
     39  H9       24.8223 42.3604 68.2721    H 1  UNK    0.1352 
     40 H10       27.0449 43.0140 68.4161    H 1  UNK    0.1942 
     41 H11       28.1005 41.2333 67.1621    H 1  UNK    0.0884 
     42 H12       28.6443 42.8436 66.7202    H 1  UNK    0.1419 
     43 H13       27.0400 42.9537 64.8807    H 1  UNK    0.1650 
     44 H14       28.0717 41.5724 64.6606    H 1  UNK    0.1567 
     45 H15       27.3139 47.2359 61.4932    H 1  UNK    0.1935 
     46 H16       26.2943 46.8108 60.1573    H 1  UNK    0.1591 
     47 H17       26.0362 48.0167 65.0716    H 1  UNK    0.1483 
     48 H18       26.4238 49.5739 64.3626    H 1  UNK    0.1419 
     49 H19       27.2240 48.1260 63.7892    H 1  UNK    0.1381 
     50 H20       23.8689 46.6127 59.5086    H 1  UNK    0.1471 
     51 H21       22.9499 48.1009 59.4331    H 1  UNK    0.1472 
     52 H22       22.3169 46.7151 60.3089    H 1  UNK    0.1041 
     53 H23       21.6818 49.7353 62.9664    H 1  UNK    0.1858 
     54 H24       21.2153 48.1630 62.2877    H 1  UNK    0.1247 
     55 H25       21.7232 49.4889 61.2143    H 1  UNK    0.1432 
@<TRIPOS>BOND                                                              
     1      1      2     ar 
     2      1      6     ar 
     3      1     31      1 
     4      2      3     ar 
     5      2     32      1 
     6      3      4     ar 
     7      3     33      1 
     8      4      5     ar 
     9      4      7      1 
    10      5      6     ar 
    11      5      9      1 
    12      6     34      1 
    13      7      8      1 
    14      8      9      2 
    15      8     17      1 
    16      9     10      1 
    17     10     11      1 
    18     11     12      1 
    19     11     16      1 
    20     11     35      1 
    21     12     13      1 
    22     12     36      1 
    23     12     37      1 
    24     13     14      1 
    25     13     38      1 
    26     13     39      1 
    27     14     15      1 
    28     14     40      1 
    29     15     16      1 
    30     15     41      1 
    31     15     42      1 
    32     16     43      1 
    33     16     44      1 
    34     17     18      1 
    35     17     21      2 
    36     18     19      1 
    37     19     20      2 
    38     19     22      1 
    39     20     21      1 
    40     22     23      1 
    41     22     45      1 
    42     22     46      1 
    43     23     24     ar 
    44     23     27     ar 
    45     24     25     ar 
    46     24     29      1 
    47     25     26     ar 
    48     25     30      1 
    49     26     27     ar 
    50     27     28      1 
    51     28     47      1 
    52     28     48      1 
    53     28     49      1 
    54     29     50      1 
    55     29     51      1 
    56     29     52      1 
    57     30     53      1 
    58     30     54      1 
    59     30     55      1 
