@<TRIPOS>MOLECULE
*****
 52  56 0 0 0 
SMALL                                                                       
CHELPG                                                                    
                                                                            
@<TRIPOS>ATOM                                                               
      1   C       21.5536 39.5765 63.8929 C.ar 1  UNK  -85.9439 
      2  C1       20.5529 40.3341 63.3070 C.ar 1  UNK   45.3356 
      3  C2       20.8263 41.5506 62.6960 C.ar 1  UNK  -30.8591 
      4  C3       22.1514 41.9984 62.6929 C.ar 1  UNK   28.0388 
      5  C4       23.2248 41.2104 63.2629 C.ar 1  UNK  -90.0912 
      6  C5       22.8909 39.9724 63.8593 C.ar 1  UNK  112.6055 
      7   S       22.7779 43.5086 62.1131  S.3 1  UNK    9.9035 
      8  C6       24.4044 43.1277 62.5418  C.2 1  UNK  -47.6545 
      9  C7       24.5029 41.8722 63.1231  C.2 1  UNK   54.0223 
     10   O       25.6715 41.2944 63.5420  O.3 1  UNK   20.6468 
     11 C11       25.9644 41.2462 64.9416  C.3 1  UNK  -110.7505 
     12 C12       24.9248 41.7486 65.9815  C.3 1  UNK  101.7665 
     13 C13       25.4921 41.6889 67.4125  C.3 1  UNK  -119.3405 
     14 N14       26.7590 42.4076 67.4930  N.3 1  UNK   14.4438 
     15 C15       27.7837 41.8644 66.6124  C.3 1  UNK  -134.2476 
     16 C16       27.3096 41.9703 65.1563  C.3 1  UNK   -8.1878 
     17 C13       25.4638 44.0835 62.2903  C.2 1  UNK   76.3958 
     18  O1       25.1173 45.3003 61.8240  O.3 1  UNK  -16.3131 
     19 C14       26.3122 45.9270 61.8890  C.2 1  UNK  -47.7562 
     20  N1       27.3197 45.1641 62.2373  N.2 1  UNK   65.1061 
     21  N3       26.7472 43.9208 62.5074  N.2 1  UNK  -47.1076 
     22 C15       26.3434 47.4050 61.6005  C.3 1  UNK  -124.4934 
     23 C16       25.2087 48.0803 62.3418 C.ar 1  UNK  155.6458 
     24 C17       25.2321 48.7089 63.5892 C.ar 1  UNK  -70.2774 
     25 N25       23.1324 48.8803 62.8703  N.2 1  UNK   82.6825 
     26 N26       23.9885 49.1352 63.8083 N.pl3 1  UNK  -10.5473 
     27 C18       23.8156 48.2339 61.9353 C.ar 1  UNK  -146.8740 
     28 C19       23.1288 47.7705 60.6705  C.3 1  UNK  -76.3314 
     29 C20       26.3332 48.9335 64.5926  C.3 1  UNK  -103.2144 
     30  H1       21.2935 38.6417 64.3666    H 1  UNK   29.6850 
     31  H2       19.5347 39.9740 63.3385    H 1  UNK    7.9500 
     32  H3       20.0349 42.1440 62.2623    H 1  UNK    5.9975 
     33  H4       23.6519 39.3523 64.3077    H 1  UNK  -28.4184 
     34  H5       26.1170 40.1813 65.1221    H 1  UNK   30.7195 
     35  H6       24.6249 42.7725 65.7544    H 1  UNK  -17.1376 
     36  H7       24.0170 41.1488 65.9540    H 1  UNK  -47.2414 
     37  H8       25.6424 40.6555 67.7303    H 1  UNK   37.7164 
     38  H9       24.7906 42.1315 68.1199    H 1  UNK   46.2291 
     39 H10       27.0863 42.4073 68.4480    H 1  UNK   25.1751 
     40 H11       27.9944 40.8291 66.8871    H 1  UNK   50.3691 
     41 H12       28.7075 42.4263 66.7549    H 1  UNK   53.8760 
     42 H13       27.2031 43.0206 64.8939    H 1  UNK  -11.3994 
     43 H14       28.0783 41.5809 64.4923    H 1  UNK   29.6458 
     44 H15       27.3024 47.8328 61.8930    H 1  UNK   27.2067 
     45 H16       26.2459 47.5724 60.5283    H 1  UNK   51.8919 
     46 H17       23.7079 49.6224 64.6472    H 1  UNK    9.4080 
     47 H18       23.8105 47.2452 60.0010    H 1  UNK   19.7551 
     48 H19       22.7139 48.6081 60.1071    H 1  UNK   59.1580 
     49 H20       22.3081 47.0857 60.8867    H 1  UNK   13.4889 
     50 H21       27.3118 48.6638 64.1972    H 1  UNK   21.2256 
     51 H22       26.1773 48.3425 65.4926    H 1  UNK   24.5765 
     52 H23       26.3868 49.9726 64.9038    H 1  UNK   63.5199 
@<TRIPOS>BOND                                                              
     1      1      2     ar 
     2      1      6     ar 
     3      1     30      1 
     4      2      3     ar 
     5      2     31      1 
     6      3      4     ar 
     7      3     32      1 
     8      4      5     ar 
     9      4      7      1 
    10      5      6     ar 
    11      5      9      1 
    12      6     33      1 
    13      7      8      1 
    14      8      9      2 
    15      8     17      1 
    16      9     10      1 
    17     10     11      1 
    18     11     12      1 
    19     11     16      1 
    20     11     34      1 
    21     12     13      1 
    22     12     35      1 
    23     12     36      1 
    24     13     14      1 
    25     13     37      1 
    26     13     38      1 
    27     14     15      1 
    28     14     39      1 
    29     15     16      1 
    30     15     40      1 
    31     15     41      1 
    32     16     42      1 
    33     16     43      1 
    34     17     18      1 
    35     17     21      2 
    36     18     19      1 
    37     19     20      2 
    38     19     22      1 
    39     20     21      1 
    40     22     23      1 
    41     22     44      1 
    42     22     45      1 
    43     23     24     ar 
    44     23     27     ar 
    45     24     29      1 
    46     24     26     ar 
    47     27     25     ar 
    48     25     26     ar 
    49     26     46      1 
    50     27     28      1 
    51     28     47      1 
    52     28     48      1 
    53     28     49      1 
    54     29     50      1 
    55     29     51      1 
    56     29     52      1 
