@<TRIPOS>MOLECULE
*****
 51  55 0 0 0 
SMALL                                                                       
MULLIKEN                                                                    
                                                                            
@<TRIPOS>ATOM                                                               
      1   C       21.8174 39.6199 63.8930 C.ar 1  UNK   -0.2082 
      2  C1       20.8134 40.3723 63.3050 C.ar 1  UNK   -0.1943 
      3  C2       21.0812 41.5868 62.6930 C.ar 1  UNK   -0.1062 
      4  C3       22.4010 42.0397 62.6929 C.ar 1  UNK   -1.4384 
      5  C4       23.4784 41.2588 63.2693 C.ar 1  UNK   -0.0550 
      6  C5       23.1506 40.0197 63.8634 C.ar 1  UNK   -0.1186 
      7   S       23.0149 43.5449 62.1124  S.3 1  UNK    2.9848 
      8  C6       24.6427 43.1758 62.5453  C.2 1  UNK   -1.4016 
      9  C7       24.7505 41.9280 63.1352  C.2 1  UNK    0.0980 
     10   O       25.9216 41.3628 63.5682  O.3 1  UNK   -0.2176 
     11 C11       26.2017 41.3326 64.9734  C.3 1  UNK    0.0049 
     12 C12       25.1201 41.7866 65.9949  C.3 1  UNK   -0.2704 
     13 C13       25.6666 41.8258 67.4328  C.3 1  UNK   -0.1524 
     14 N14       26.8795 42.6334 67.4929  N.3 1  UNK   -0.3980 
     15 C15       27.9528 42.0903 66.6721  C.3 1  UNK   -0.1573 
     16 C16       27.5199 42.1042 65.1994  C.3 1  UNK   -0.2745 
     17 C13       25.6763 44.1368 62.2928  C.2 1  UNK    0.1350 
     18  O1       25.3044 45.3330 61.8098  O.3 1  UNK   -0.2413 
     19 C14       26.4666 45.9997 61.9026  C.2 1  UNK   -0.0451 
     20  N1       27.4960 45.2735 62.2669  N.2 1  UNK   -0.0891 
     21  N2       26.9614 44.0078 62.5213  N.2 1  UNK   -0.0802 
     22 C15       26.4406 47.4697 61.6161  C.3 1  UNK   -0.0911 
     23 C16       25.2688 48.0985 62.3494  C.2 1  UNK   -0.2423 
     24 C17       25.2635 48.7714 63.5755  C.2 1  UNK    0.0343 
     25  O2       24.0258 49.1727 63.8906  O.3 1  UNK   -0.0695 
     26  N3       23.1926 48.7776 62.8799  N.2 1  UNK   -0.0679 
     27 C18       23.8908 48.1480 61.9630  C.2 1  UNK   -0.0695 
     28 C19       23.2163 47.5998 60.7255  C.3 1  UNK   -0.2758 
     29 C20       26.3380 49.1154 64.5708  C.3 1  UNK   -0.3132 
     30  H1       21.5606 38.6862 64.3674    H 1  UNK    0.1736 
     31  H2       19.7961 40.0094 63.3363    H 1  UNK    0.1668 
     32  H3       20.2876 42.1757 62.2593    H 1  UNK    0.1368 
     33  H4       23.9133 39.4014 64.3136    H 1  UNK    0.1890 
     34  H5       26.3996 40.2774 65.1640    H 1  UNK    0.1302 
     35  H6       24.7406 42.7721 65.7307    H 1  UNK    0.1444 
     36  H7       24.2626 41.1179 65.9829    H 1  UNK    0.1446 
     37  H8       25.8813 40.8200 67.7986    H 1  UNK    0.0906 
     38  H9       24.9241 42.2514 68.1085    H 1  UNK    0.1366 
     39 H10       27.1818 42.7122 68.4535    H 1  UNK    0.1960 
     40 H11       28.1985 41.0805 67.0051    H 1  UNK    0.0878 
     41 H12       28.8466 42.6990 66.8111    H 1  UNK    0.1407 
     42 H13       27.4012 43.1412 64.8858    H 1  UNK    0.1693 
     43 H14       28.3182 41.6974 64.5809    H 1  UNK    0.1509 
     44 H15       27.3817 47.9440 61.8931    H 1  UNK    0.1962 
     45 H16       26.3310 47.5725 60.5376    H 1  UNK    0.1657 
     46 H17       22.4531 46.8630 60.9762    H 1  UNK    0.1002 
     47 H18       23.9207 47.1082 60.0551    H 1  UNK    0.1399 
     48 H19       22.7293 48.3875 60.1507    H 1  UNK    0.1667 
     49 H20       27.3152 48.7496 64.2632    H 1  UNK    0.1633 
     50 H21       26.1279 48.6935 65.5511    H 1  UNK    0.1704 
     51 H22       26.4208 50.1919 64.6916    H 1  UNK    0.1607 
@<TRIPOS>BOND                                                              
     1      1      2     ar 
     2      1      6     ar 
     3      1     30      1 
     4      2      3     ar 
     5      2     31      1 
     6      3      4     ar 
     7      3     32      1 
     8      4      5     ar 
     9      4      7      1 
    10      5      6     ar 
    11      5      9      1 
    12      6     33      1 
    13      7      8      1 
    14      8      9      2 
    15      8     17      1 
    16      9     10      1 
    17     10     11      1 
    18     11     12      1 
    19     11     16      1 
    20     11     34      1 
    21     12     13      1 
    22     12     35      1 
    23     12     36      1 
    24     13     14      1 
    25     13     37      1 
    26     13     38      1 
    27     14     15      1 
    28     14     39      1 
    29     15     16      1 
    30     15     40      1 
    31     15     41      1 
    32     16     42      1 
    33     16     43      1 
    34     17     18      1 
    35     17     21      2 
    36     18     19      1 
    37     19     20      2 
    38     19     22      1 
    39     20     21      1 
    40     22     23      1 
    41     22     44      1 
    42     22     45      1 
    43     23     24      2 
    44     23     27      1 
    45     24     25      1 
    46     24     29      1 
    47     25     26      1 
    48     26     27      2 
    49     27     28      1 
    50     28     46      1 
    51     28     47      1 
    52     28     48      1 
    53     29     49      1 
    54     29     50      1 
    55     29     51      1 
