@<TRIPOS>MOLECULE
*****
 51  55 0 0 0 
SMALL                                                                       
MULLIKEN                                                                    
                                                                            
@<TRIPOS>ATOM                                                               
      1   C       22.4648 39.0732 63.5111 C.ar 1  UNK   -0.2082 
      2  C1       21.2583 39.7032 63.0329 C.ar 1  UNK   -0.1943 
      3  C2       21.2011 41.0353 62.8171 C.ar 1  UNK   -0.1062 
      4  C3       22.3293 41.8930 63.0517 C.ar 1  UNK   -1.4384 
      5  C4       23.5679 41.2161 63.5649 C.ar 1  UNK   -0.0550 
      6  C5       23.5763 39.8027 63.7687 C.ar 1  UNK   -0.1186 
      7   S       22.5844 43.3006 62.9062  S.3 1  UNK    2.9849 
      8  C6       23.9664 43.5081 63.3598  C.2 1  UNK   -1.4016 
      9  C7       24.5341 42.1808 63.7548  C.2 1  UNK    0.0979 
     10   O       25.8436 42.0327 64.0913  O.3 1  UNK   -0.2176 
     11 C11       26.0670 41.4594 65.4042  C.3 1  UNK    0.0048 
     12 C12       26.4643 42.5701 66.3656  C.3 1  UNK   -0.2704 
     13 C13       26.9315 41.9819 67.6944  C.3 1  UNK   -0.1524 
     14 N14       27.9652 40.9752 67.5505  N.3 1  UNK   -0.3980 
     15 C15       27.6417 39.9276 66.6024  C.3 1  UNK   -0.1573 
     16 C16       27.2052 40.4586 65.2392  C.3 1  UNK   -0.2745 
     17 C13       24.7780 44.6661 63.4646  C.2 1  UNK    0.1350 
     18  O1       24.8025 45.5297 62.3362  O.3 1  UNK   -0.2413 
     19 C14       25.6733 46.5591 62.7296  C.2 1  UNK   -0.0451 
     20  N1       26.1185 46.3074 63.9728  N.2 1  UNK   -0.0891 
     21  N2       25.5795 45.1802 64.4180  N.2 1  UNK   -0.0802 
     22 C15       25.9265 47.6611 61.7722  C.3 1  UNK   -0.0911 
     23 C16       24.9465 48.7476 61.8988  C.2 1  UNK   -0.2423 
     24 C17       24.7726 49.6665 62.9200  C.2 1  UNK    0.0343 
     25  O2       23.7014 50.5143 62.5507  O.3 1  UNK   -0.0695 
     26  N3       23.2267 50.1640 61.3716  N.2 1  UNK   -0.0679 
     27 C18       23.9230 49.1066 60.9076  C.2 1  UNK   -0.0695 
     28 C19       23.7223 48.4212 59.6179  C.3 1  UNK   -0.2758 
     29 C20       25.4129 49.9341 64.2058  C.3 1  UNK   -0.3132 
     30  H1       22.4500 37.9833 63.6559    H 1  UNK    0.1736 
     31  H2       20.3861 39.0595 62.8491    H 1  UNK    0.1668 
     32  H3       20.2757 41.5082 62.4515    H 1  UNK    0.1368 
     33  H4       24.5107 39.3443 64.1277    H 1  UNK    0.1891 
     34  H5       25.1383 40.9385 65.7636    H 1  UNK    0.1302 
     35  H6       27.2773 43.1863 65.9009    H 1  UNK    0.1444 
     36  H7       25.5921 43.2469 66.5498    H 1  UNK    0.1446 
     37  H8       26.0252 41.5782 68.2382    H 1  UNK    0.0906 
     38  H9       27.3619 42.8108 68.3249    H 1  UNK    0.1366 
     39 H10       28.1744 40.5715 68.4445    H 1  UNK    0.1960 
     40 H11       26.8270 39.2443 66.9890    H 1  UNK    0.0878 
     41 H12       28.5697 39.3029 66.4668    H 1  UNK    0.1407 
     42 H13       28.0630 40.9596 64.7208    H 1  UNK    0.1693 
     43 H14       26.8699 39.6021 64.6012    H 1  UNK    0.1509 
     44 H15       26.9652 48.0576 61.9574    H 1  UNK    0.1962 
     45 H16       25.8946 47.2413 60.7279    H 1  UNK    0.1657 
     46 H17       22.8035 48.7810 59.0922    H 1  UNK    0.1002 
     47 H18       23.6318 47.3194 59.7893    H 1  UNK    0.1399 
     48 H19       24.6064 48.6067 58.9565    H 1  UNK    0.1667 
     49 H20       26.2177 49.1796 64.3949    H 1  UNK    0.1633 
     50 H21       24.6599 49.8782 65.0328    H 1  UNK    0.1704 
     51 H22       25.8603 50.9607 64.2081    H 1  UNK    0.1607 
@<TRIPOS>BOND                                                              
     1      1      2     ar 
     2      1      6     ar 
     3      1     30      1 
     4      2      3     ar 
     5      2     31      1 
     6      3      4     ar 
     7      3     32      1 
     8      4      5     ar 
     9      4      7      1 
    10      5      6     ar 
    11      5      9      1 
    12      6     33      1 
    13      7      8      1 
    14      8      9      2 
    15      8     17      1 
    16      9     10      1 
    17     10     11      1 
    18     11     12      1 
    19     11     16      1 
    20     11     34      1 
    21     12     13      1 
    22     12     35      1 
    23     12     36      1 
    24     13     14      1 
    25     13     37      1 
    26     13     38      1 
    27     14     15      1 
    28     14     39      1 
    29     15     16      1 
    30     15     40      1 
    31     15     41      1 
    32     16     42      1 
    33     16     43      1 
    34     17     18      1 
    35     17     21      2 
    36     18     19      1 
    37     19     20      2 
    38     19     22      1 
    39     20     21      1 
    40     22     23      1 
    41     22     44      1 
    42     22     45      1 
    43     23     24      2 
    44     23     27      1 
    45     24     25      1 
    46     24     29      1 
    47     25     26      1 
    48     26     27      2 
    49     27     28      1 
    50     28     46      1 
    51     28     47      1 
    52     28     48      1 
    53     29     49      1 
    54     29     50      1 
    55     29     51      1 
