@<TRIPOS>MOLECULE
*****
 52  56 0 0 0 
SMALL                                                                       
CHELPG                                                                    
                                                                            
@<TRIPOS>ATOM                                                               
      1   C       22.1844 39.0885 63.3912 C.ar 1  UNK  -46.1985 
      2  C1       21.0292 39.7757 62.8672 C.ar 1  UNK   26.5831 
      3  C2       21.0497 41.1066 62.6372 C.ar 1  UNK  -11.5076 
      4  C3       22.2131 41.9064 62.9012 C.ar 1  UNK   -4.3973 
      5  C4       23.3970 41.1711 63.4614 C.ar 1  UNK  -70.7319 
      6  C5       23.3239 39.7616 63.6786 C.ar 1  UNK   77.6771 
      7   S       22.5475 43.2971 62.7503  S.3 1  UNK   31.4577 
      8  C6       23.9231 43.4352 63.2504  C.2 1  UNK  -23.7763 
      9  C7       24.4070 42.0855 63.6734  C.2 1  UNK   58.0713 
     10   O       25.6956 41.8673 64.0506  O.3 1  UNK   -1.3979 
     11 C11       25.8467 41.3055 65.3783  C.3 1  UNK  -91.2930 
     12 C12       26.2775 42.4084 66.3344  C.3 1  UNK    9.3541 
     13 C13       26.6683 41.8178 67.6865  C.3 1  UNK  -153.5757 
     14 N14       27.6456 40.7507 67.5922  N.3 1  UNK   81.7287 
     15 C15       27.2938 39.7079 66.6489  C.3 1  UNK  -214.1241 
     16 C16       26.9314 40.2401 65.2647  C.3 1  UNK  -29.4852 
     17 C13       24.7798 44.5591 63.3669  C.2 1  UNK    9.2624 
     18  O1       24.7315 45.4948 62.2963  O.3 1  UNK  -29.2807 
     19 C14       25.6527 46.4835 62.6832  C.2 1  UNK   47.8453 
     20  N1       26.1916 46.1422 63.8653  N.2 1  UNK    3.6345 
     21  N3       25.6668 44.9954 64.2810  N.2 1  UNK  -24.4701 
     22 C15       25.8395 47.6473 61.7837  C.3 1  UNK  -99.3488 
     23 C16       24.8451 48.6999 62.0212 C.ar 1  UNK  134.2058 
     24 C17       24.8162 49.6568 63.0559 C.ar 1  UNK  -86.2336 
     25 N25       23.0037 50.0538 61.7352  N.2 1  UNK   73.7835 
     26 N26       23.6768 50.4370 62.8181 N.pl3 1  UNK   -5.8755 
     27 C18       23.6768 48.9894 61.2069 C.ar 1  UNK  -119.0742 
     28 C19       23.2906 48.2599 59.9855  C.3 1  UNK  -66.7223 
     29 C20       25.7413 49.8606 64.1810  C.3 1  UNK  -123.8452 
     30  H1       22.1071 38.0027 63.5455    H 1  UNK   20.0146 
     31  H2       20.1308 39.1768 62.6603    H 1  UNK    8.0098 
     32  H3       20.1632 41.6233 62.2363    H 1  UNK    1.5697 
     33  H4       24.2206 39.2589 64.0727    H 1  UNK  -34.9389 
     34  H5       24.8800 40.8434 65.7174    H 1  UNK   21.0481 
     35  H6       27.1385 42.9689 65.8856    H 1  UNK   15.5365 
     36  H7       25.4406 43.1372 66.4791    H 1  UNK   10.0516 
     37  H8       25.7236 41.4765 68.2073    H 1  UNK   54.4778 
     38  H9       27.1264 42.6313 68.3174    H 1  UNK   48.7827 
     39 H10       27.8006 40.3500 68.4986    H 1  UNK   14.5276 
     40 H11       26.4298 39.0776 67.0185    H 1  UNK   63.8372 
     41 H12       28.1887 39.0300 66.5528    H 1  UNK   74.8575 
     42 H13       27.8318 40.6844 64.7672    H 1  UNK   41.1598 
     43 H14       26.5688 39.3936 64.6283    H 1  UNK   33.7721 
     44 H15       26.8781 48.0529 61.9445    H 1  UNK   28.8712 
     45 H16       25.7646 47.2885 60.7191    H 1  UNK   20.2603 
     46 H17       23.3636 51.2095 63.3569    H 1  UNK   15.2228 
     47 H18       23.4185 47.1608 60.1513    H 1  UNK    3.7003 
     48 H19       23.9534 48.5694 59.1379    H 1  UNK   44.0681 
     49 H20       22.2300 48.4611 59.6959    H 1  UNK   34.5308 
     50 H21       26.5346 49.0707 64.1566    H 1  UNK   16.2164 
     51 H22       25.2034 49.7886 65.1599    H 1  UNK   46.1321 
     52 H23       26.2309 50.8650 64.1177    H 1  UNK   66.0263 
@<TRIPOS>BOND                                                              
     1      1      2     ar 
     2      1      6     ar 
     3      1     30      1 
     4      2      3     ar 
     5      2     31      1 
     6      3      4     ar 
     7      3     32      1 
     8      4      5     ar 
     9      4      7      1 
    10      5      6     ar 
    11      5      9      1 
    12      6     33      1 
    13      7      8      1 
    14      8      9      2 
    15      8     17      1 
    16      9     10      1 
    17     10     11      1 
    18     11     12      1 
    19     11     16      1 
    20     11     34      1 
    21     12     13      1 
    22     12     35      1 
    23     12     36      1 
    24     13     14      1 
    25     13     37      1 
    26     13     38      1 
    27     14     15      1 
    28     14     39      1 
    29     15     16      1 
    30     15     40      1 
    31     15     41      1 
    32     16     42      1 
    33     16     43      1 
    34     17     18      1 
    35     17     21      2 
    36     18     19      1 
    37     19     20      2 
    38     19     22      1 
    39     20     21      1 
    40     22     23      1 
    41     22     44      1 
    42     22     45      1 
    43     23     24     ar 
    44     23     27     ar 
    45     24     29      1 
    46     24     26     ar 
    47     27     25     ar 
    48     25     26     ar 
    49     26     46      1 
    50     27     28      1 
    51     28     47      1 
    52     28     48      1 
    53     28     49      1 
    54     29     50      1 
    55     29     51      1 
    56     29     52      1 
