@<TRIPOS>MOLECULE
*****
 58  62 0 0 0 
SMALL                                                                       
LOEWDIN                                                                    
                                                                            
@<TRIPOS>ATOM                                                               
      1   C       29.9582 42.2450 65.2685 C.ar 1  UNK   -0.1505 
      2  C1       30.6523 42.9413 64.2930 C.ar 1  UNK   -0.1420 
      3  C2       29.9956 43.5722 63.2454 C.ar 1  UNK   -0.0731 
      4  C3       28.6004 43.4945 63.2082 C.ar 1  UNK   -1.2180 
      5  C4       27.8470 42.7928 64.2223 C.ar 1  UNK   -0.0609 
      6  C5       28.5674 42.1541 65.2580 C.ar 1  UNK   -0.0611 
      7   S       27.5155 44.1761 62.0364  S.3 1  UNK    2.6172 
      8  C6       26.1023 43.6968 62.8958  C.2 1  UNK   -1.1991 
      9  C7       26.4238 42.9065 64.0018  C.2 1  UNK    0.0416 
     10   O       25.5157 42.3725 64.8784  O.3 1  UNK   -0.1887 
     11 C11       25.1430 41.0124 64.7248  C.3 1  UNK    0.0612 
     12 C12       24.2952 40.8088 63.4473  C.3 1  UNK   -0.1853 
     13 C13       23.4085 39.5726 63.4931  C.3 1  UNK   -0.0780 
     14 N14       22.5974 39.5724 64.6928  N.3 1  UNK   -0.2757 
     15 C15       23.4552 39.4265 65.8553  C.3 1  UNK   -0.0788 
     16 C16       24.3510 40.6671 66.0103  C.3 1  UNK   -0.1473 
     17 C13       24.7671 44.1609 62.4574  C.2 1  UNK    0.0771 
     18  O1       24.6953 44.9889 61.3905  O.3 1  UNK   -0.1858 
     19 C14       23.3737 45.3008 61.4236  C.2 1  UNK   -0.0492 
     20  N1       22.6844 44.6934 62.3545  N.2 1  UNK   -0.0661 
     21  N2       23.6233 43.9548 63.0650  N.2 1  UNK   -0.0606 
     22 C15       22.8655 46.3443 60.4489  C.3 1  UNK   -0.0796 
     23 C16       23.7481 47.6063 60.4523  C.3 1  UNK   -0.0659 
     24 C17       23.9347 48.1638 61.8519 C.ar 1  UNK   -0.1867 
     25 C18       22.9658 48.8436 62.6931 C.ar 1  UNK   -0.0968 
     26  N3       23.5163 49.1722 63.8518  N.2 1  UNK   -0.0794 
     27  N4       24.7466 48.7672 63.7950 N.pl3 1  UNK   -0.0697 
     28 C19       25.0850 48.1490 62.6559 C.ar 1  UNK   -0.0763 
     29 C20       26.4748 47.6015 62.4286  C.3 1  UNK   -0.1385 
     30 C21       21.5207 49.1836 62.4066  C.3 1  UNK   -0.1378 
     31 C22       25.6152 49.0314 64.9393  C.3 1  UNK   -0.0628 
     32  H1       30.5096 41.7651 66.0641    H 1  UNK    0.1136 
     33  H2       31.7299 42.9895 64.3459    H 1  UNK    0.1072 
     34  H3       30.5487 44.1072 62.4877    H 1  UNK    0.0834 
     35  H4       28.0524 41.6171 66.0417    H 1  UNK    0.1273 
     36  H5       26.0401 40.3925 64.6805    H 1  UNK    0.0648 
     37  H6       23.5931 41.6193 63.3310    H 1  UNK    0.1244 
     38  H7       24.9269 40.8024 62.5580    H 1  UNK    0.0700 
     39  H8       24.0238 38.6816 63.4546    H 1  UNK    0.0374 
     40  H9       22.7118 39.5725 62.6625    H 1  UNK    0.0823 
     41 H10       21.9532 38.7951 64.6590    H 1  UNK    0.1408 
     42 H11       24.0470 38.5116 65.7909    H 1  UNK    0.0421 
     43 H12       22.7824 39.3129 66.6929    H 1  UNK    0.0825 
     44 H13       23.7141 41.5093 66.2883    H 1  UNK    0.1121 
     45 H14       25.0359 40.5289 66.8480    H 1  UNK    0.0789 
     46 H15       22.8236 45.9480 59.4377    H 1  UNK    0.0935 
     47 H16       21.8375 46.6175 60.6904    H 1  UNK    0.1225 
     48 H17       24.7114 47.3737 59.9958    H 1  UNK    0.0695 
     49 H18       23.3009 48.3589 59.8006    H 1  UNK    0.0947 
     50 H19       26.6133 47.2088 61.4223    H 1  UNK    0.0605 
     51 H20       26.7023 46.7949 63.1245    H 1  UNK    0.0634 
     52 H21       27.2237 48.3713 62.5825    H 1  UNK    0.0892 
     53 H22       21.3532 49.3699 61.3446    H 1  UNK    0.0727 
     54 H23       21.1849 50.0737 62.9396    H 1  UNK    0.0919 
     55 H24       20.8561 48.3690 62.6907    H 1  UNK    0.0927 
     56 H25       25.0317 49.1724 65.8497    H 1  UNK    0.1232 
     57 H26       26.1907 49.9369 64.7458    H 1  UNK    0.0845 
     58 H27       26.3003 48.1984 65.0929    H 1  UNK    0.0915 
@<TRIPOS>BOND                                                              
     1      1      2     ar 
     2      1      6     ar 
     3      1     32      1 
     4      2      3     ar 
     5      2     33      1 
     6      3      4     ar 
     7      3     34      1 
     8      4      5     ar 
     9      4      7      1 
    10      5      6     ar 
    11      5      9      1 
    12      6     35      1 
    13      7      8      1 
    14      8      9      2 
    15      8     17      1 
    16      9     10      1 
    17     10     11      1 
    18     11     12      1 
    19     11     16      1 
    20     11     36      1 
    21     12     13      1 
    22     12     37      1 
    23     12     38      1 
    24     13     14      1 
    25     13     39      1 
    26     13     40      1 
    27     14     15      1 
    28     14     41      1 
    29     15     16      1 
    30     15     42      1 
    31     15     43      1 
    32     16     44      1 
    33     16     45      1 
    34     17     18      1 
    35     17     21      2 
    36     18     19      1 
    37     19     20      2 
    38     19     22      1 
    39     20     21      1 
    40     22     23      1 
    41     22     46      1 
    42     22     47      1 
    43     23     24      1 
    44     23     48      1 
    45     23     49      1 
    46     24     25     ar 
    47     24     28     ar 
    48     25     26     ar 
    49     25     30      1 
    50     26     27     ar 
    51     27     28     ar 
    52     27     31      1 
    53     28     29      1 
    54     29     50      1 
    55     29     51      1 
    56     29     52      1 
    57     30     53      1 
    58     30     54      1 
    59     30     55      1 
    60     31     56      1 
    61     31     57      1 
    62     31     58      1 
