@<TRIPOS>MOLECULE
*****
 58  62 0 0 0 
SMALL                                                                       
MULLIKEN                                                                    
                                                                            
@<TRIPOS>ATOM                                                               
      1   C       29.9416 39.7349 63.5010 C.ar 1  UNK   -0.2100 
      2  C1       30.3967 39.4596 62.1603 C.ar 1  UNK   -0.1950 
      3  C2       29.9072 40.1397 61.1005 C.ar 1  UNK   -0.1091 
      4  C3       28.9116 41.1640 61.2484 C.ar 1  UNK   -1.4252 
      5  C4       28.4437 41.4218 62.6513 C.ar 1  UNK   -0.0496 
      6  C5       29.0002 40.6797 63.7373 C.ar 1  UNK   -0.1144 
      7   S       28.2266 42.0519 60.3427  S.3 1  UNK    2.9569 
      8  C6       27.3029 42.8299 61.1914  C.2 1  UNK   -1.3945 
      9  C7       27.4849 42.4125 62.6078  C.2 1  UNK    0.0849 
     10   O       26.8837 43.0540 63.6493  O.3 1  UNK   -0.2233 
     11 C11       25.9332 42.2424 64.3784  C.3 1  UNK    0.0203 
     12 C12       24.5950 42.2157 63.6544  C.3 1  UNK   -0.2950 
     13 C13       23.5235 41.5674 64.5266  C.3 1  UNK   -0.1656 
     14 N14       23.4280 42.1504 65.8515  N.3 1  UNK   -0.3636 
     15 C15       24.6958 42.2286 66.5513  C.3 1  UNK   -0.1669 
     16 C16       25.7914 42.9152 65.7394  C.3 1  UNK   -0.2526 
     17 C13       26.4030 43.8359 60.7727  C.2 1  UNK    0.1156 
     18  O1       25.5295 44.4833 61.6400  O.3 1  UNK   -0.2430 
     19 C14       24.8342 45.3830 60.7955  C.2 1  UNK   -0.0237 
     20  N1       25.2851 45.2486 59.5358  N.2 1  UNK   -0.0844 
     21  N2       26.2273 44.3213 59.5101  N.2 1  UNK   -0.0737 
     22 C15       23.8074 46.2309 61.4334  C.3 1  UNK   -0.1812 
     23 C16       24.4484 47.3391 62.2595  C.3 1  UNK   -0.1631 
     24 C17       23.4579 48.0281 63.0915 C.ar 1  UNK   -0.1922 
     25 C18       22.7434 49.2503 62.7676 C.ar 1  UNK   -0.0809 
     26  N3       21.9224 49.5941 63.8006  N.2 1  UNK   -0.0870 
     27  N4       22.0857 48.6676 64.7576 N.pl3 1  UNK   -0.1718 
     28 C19       23.0082 47.6736 64.3778 C.ar 1  UNK   -0.0477 
     29 C20       23.3921 46.5264 65.2153  C.3 1  UNK   -0.2739 
     30 C21       22.8965 50.0114 61.5139  C.3 1  UNK   -0.2736 
     31 C22       21.3384 48.6488 65.9899  C.3 1  UNK   -0.1925 
     32  H1       30.3873 39.1545 64.3217    H 1  UNK    0.1737 
     33  H2       31.1585 38.6775 62.0312    H 1  UNK    0.1657 
     34  H3       30.2620 39.9243 60.0800    H 1  UNK    0.1349 
     35  H4       28.6441 40.9134 64.7518    H 1  UNK    0.1907 
     36  H5       26.3404 41.2007 64.4927    H 1  UNK    0.1181 
     37  H6       24.3051 43.2661 63.3862    H 1  UNK    0.1909 
     38  H7       24.6909 41.6378 62.7006    H 1  UNK    0.1187 
     39  H8       23.7318 40.4564 64.5702    H 1  UNK    0.0842 
     40  H9       22.5206 41.7036 64.0313    H 1  UNK    0.1368 
     41 H10       22.7683 41.6329 66.4024    H 1  UNK    0.1925 
     42 H11       25.0737 41.2071 66.8565    H 1  UNK    0.0891 
     43 H12       24.5203 42.8192 67.4946    H 1  UNK    0.1378 
     44 H13       25.5481 43.9992 65.5896    H 1  UNK    0.1726 
     45 H14       26.7593 42.8532 66.2974    H 1  UNK    0.1308 
     46 H15       23.1451 46.6737 60.6428    H 1  UNK    0.1499 
     47 H16       23.1766 45.5813 62.0995    H 1  UNK    0.1854 
     48 H17       25.2510 46.8936 62.9095    H 1  UNK    0.1189 
     49 H18       24.9404 48.0782 61.5705    H 1  UNK    0.1507 
     50 H19       23.9165 46.8698 66.1429    H 1  UNK    0.1038 
     51 H20       24.0837 45.8584 64.6414    H 1  UNK    0.1088 
     52 H21       22.4939 45.9309 65.5177    H 1  UNK    0.1429 
     53 H22       22.8752 49.3056 60.6459    H 1  UNK    0.1198 
     54 H23       23.8825 50.5413 61.5157    H 1  UNK    0.1444 
     55 H24       22.0860 50.7694 61.3814    H 1  UNK    0.1456 
     56 H25       21.0511 49.6906 66.2913    H 1  UNK    0.1855 
     57 H26       21.9783 48.1888 66.7889    H 1  UNK    0.1382 
     58 H27       20.4068 48.0341 65.8615    H 1  UNK    0.1454 
@<TRIPOS>BOND                                                              
     1      1      2     ar 
     2      1      6     ar 
     3      1     32      1 
     4      2      3     ar 
     5      2     33      1 
     6      3      4     ar 
     7      3     34      1 
     8      4      5     ar 
     9      4      7      1 
    10      5      6     ar 
    11      5      9      1 
    12      6     35      1 
    13      7      8      1 
    14      8      9      2 
    15      8     17      1 
    16      9     10      1 
    17     10     11      1 
    18     11     12      1 
    19     11     16      1 
    20     11     36      1 
    21     12     13      1 
    22     12     37      1 
    23     12     38      1 
    24     13     14      1 
    25     13     39      1 
    26     13     40      1 
    27     14     15      1 
    28     14     41      1 
    29     15     16      1 
    30     15     42      1 
    31     15     43      1 
    32     16     44      1 
    33     16     45      1 
    34     17     18      1 
    35     17     21      2 
    36     18     19      1 
    37     19     20      2 
    38     19     22      1 
    39     20     21      1 
    40     22     23      1 
    41     22     46      1 
    42     22     47      1 
    43     23     24      1 
    44     23     48      1 
    45     23     49      1 
    46     24     25     ar 
    47     24     28     ar 
    48     25     26     ar 
    49     25     30      1 
    50     26     27     ar 
    51     27     28     ar 
    52     27     31      1 
    53     28     29      1 
    54     29     50      1 
    55     29     51      1 
    56     29     52      1 
    57     30     53      1 
    58     30     54      1 
    59     30     55      1 
    60     31     56      1 
    61     31     57      1 
    62     31     58      1 
