@<TRIPOS>MOLECULE
*****
 55  59 0 0 0 
SMALL                                                                       
LOEWDIN                                                                    
                                                                            
@<TRIPOS>ATOM                                                               
      1   C       21.6309 39.6586 63.8929 C.ar 1  UNK   -0.1505 
      2  C1       20.7694 40.5359 63.2590 C.ar 1  UNK   -0.1407 
      3  C2       21.2238 41.7179 62.6931 C.ar 1  UNK   -0.0710 
      4  C3       22.5930 41.9955 62.7757 C.ar 1  UNK   -1.2271 
      5  C4       23.5215 41.0766 63.3895 C.ar 1  UNK   -0.0616 
      6  C5       23.0032 39.8906 63.9509 C.ar 1  UNK   -0.0615 
      7   S       23.4330 43.4180 62.2769  S.3 1  UNK    2.6407 
      8  C6       24.9836 42.7943 62.6924  C.2 1  UNK   -1.2022 
      9  C7       24.8799 41.5605 63.3158  C.2 1  UNK    0.0412 
     10   O       25.9289 40.8307 63.8123  O.3 1  UNK   -0.1760 
     11 C11       26.2059 40.9693 65.2167  C.3 1  UNK    0.0470 
     12 C12       25.0239 41.2888 66.1846  C.3 1  UNK   -0.1655 
     13 C13       25.4977 41.6681 67.5959  C.3 1  UNK   -0.0769 
     14 N14       26.4465 42.7724 67.4932  N.3 1  UNK   -0.2937 
     15 C15       27.6742 42.3347 66.8450  C.3 1  UNK   -0.0790 
     16 C16       27.3579 41.9875 65.3880  C.3 1  UNK   -0.1699 
     17 C13       26.1766 43.5663 62.3833  C.2 1  UNK    0.0891 
     18  O1       26.0115 44.8390 61.9717  O.3 1  UNK   -0.1786 
     19 C14       27.2961 45.2424 61.9241  C.2 1  UNK   -0.0670 
     20  N1       28.1812 44.2968 62.1340  N.2 1  UNK   -0.0736 
     21  N2       27.4252 43.1679 62.4575  N.2 1  UNK   -0.0681 
     22 C15       27.5620 46.7154 61.7379  C.3 1  UNK   -0.0759 
     23 C16       26.9263 47.5087 62.8966  C.3 1  UNK   -0.0822 
     24 C17       25.4849 48.0156 62.8189 C.ar 1  UNK   -0.1561 
     25 C18       24.8075 48.9032 63.7537 C.ar 1  UNK   -0.1075 
     26  N3       23.5605 49.1230 63.3666  N.2 1  UNK   -0.0813 
     27  N4       23.4093 48.4519 62.2710 N.pl3 1  UNK   -0.1260 
     28 C19       24.4742 47.7657 61.8574 C.ar 1  UNK   -0.1141 
     29 C20       24.4192 46.9401 60.5850  C.3 1  UNK   -0.1323 
     30 C21       25.3393 49.5442 65.0109  C.3 1  UNK   -0.1399 
     31  H1       21.2301 38.7573 64.3300    H 1  UNK    0.1133 
     32  H2       19.7143 40.3035 63.2243    H 1  UNK    0.1074 
     33  H3       20.5381 42.4113 62.2353    H 1  UNK    0.0841 
     34  H4       23.6525 39.1750 64.4297    H 1  UNK    0.1268 
     35  H5       26.5803 39.9764 65.4936    H 1  UNK    0.0878 
     36  H6       24.4310 42.1273 65.8126    H 1  UNK    0.0906 
     37  H7       24.3453 40.4402 66.2642    H 1  UNK    0.0864 
     38  H8       25.9618 40.8175 68.1004    H 1  UNK    0.0465 
     39  H9       24.6512 41.9729 68.2138    H 1  UNK    0.0826 
     40 H10       26.6595 43.1162 68.4207    H 1  UNK    0.1381 
     41 H11       28.1043 41.4859 67.3763    H 1  UNK    0.0448 
     42 H12       28.4004 43.1464 66.8941    H 1  UNK    0.0842 
     43 H13       27.0689 42.9187 64.9123    H 1  UNK    0.0950 
     44 H14       28.2612 41.6445 64.8878    H 1  UNK    0.1014 
     45 H15       28.6417 46.8695 61.7712    H 1  UNK    0.1206 
     46 H16       27.2710 47.1067 60.7675    H 1  UNK    0.1030 
     47 H17       27.0152 46.9293 63.8169    H 1  UNK    0.1006 
     48 H18       27.5568 48.3716 63.0929    H 1  UNK    0.0932 
     49 H19       22.5260 48.4606 61.7770    H 1  UNK    0.2627 
     50 H20       25.3511 46.5061 60.2474    H 1  UNK    0.1128 
     51 H21       24.0574 47.5416 59.7512    H 1  UNK    0.0880 
     52 H22       23.7183 46.1110 60.6930    H 1  UNK    0.0239 
     53 H23       26.3999 49.3389 65.1546    H 1  UNK    0.0825 
     54 H24       24.8227 49.1726 65.8942    H 1  UNK    0.0915 
     55 H25       25.2237 50.6272 64.9870    H 1  UNK    0.0926 
@<TRIPOS>BOND                                                              
     1      1      2     ar 
     2      1      6     ar 
     3      1     31      1 
     4      2      3     ar 
     5      2     32      1 
     6      3      4     ar 
     7      3     33      1 
     8      4      5     ar 
     9      4      7      1 
    10      5      6     ar 
    11      5      9      1 
    12      6     34      1 
    13      7      8      1 
    14      8      9      2 
    15      8     17      1 
    16      9     10      1 
    17     10     11      1 
    18     11     12      1 
    19     11     16      1 
    20     11     35      1 
    21     12     13      1 
    22     12     36      1 
    23     12     37      1 
    24     13     14      1 
    25     13     38      1 
    26     13     39      1 
    27     14     15      1 
    28     14     40      1 
    29     15     16      1 
    30     15     41      1 
    31     15     42      1 
    32     16     43      1 
    33     16     44      1 
    34     17     18      1 
    35     17     21      2 
    36     18     19      1 
    37     19     20      2 
    38     19     22      1 
    39     20     21      1 
    40     22     23      1 
    41     22     45      1 
    42     22     46      1 
    43     23     24      1 
    44     23     47      1 
    45     23     48      1 
    46     24     25     ar 
    47     24     28     ar 
    48     25     26     ar 
    49     25     30      1 
    50     26     27     ar 
    51     27     28     ar 
    52     27     49      1 
    53     28     29      1 
    54     29     50      1 
    55     29     51      1 
    56     29     52      1 
    57     30     53      1 
    58     30     54      1 
    59     30     55      1 
