@<TRIPOS>MOLECULE
*****
 55  59 0 0 0 
SMALL                                                                       
LOEWDIN                                                                    
                                                                            
@<TRIPOS>ATOM                                                               
      1   C       20.7488 41.4585 64.5676 C.ar 1  UNK   -0.1504 
      2  C1       20.1453 42.7059 64.1673 C.ar 1  UNK   -0.1408 
      3  C2       20.8997 43.7491 63.7563 C.ar 1  UNK   -0.0710 
      4  C3       22.3317 43.6741 63.6967 C.ar 1  UNK   -1.2271 
      5  C4       22.9357 42.3722 64.1285 C.ar 1  UNK   -0.0616 
      6  C5       22.0935 41.2977 64.5494 C.ar 1  UNK   -0.0616 
      7   S       23.3806 44.5849 63.3018  S.3 1  UNK    2.6407 
      8  C6       24.6438 43.8359 63.5126  C.2 1  UNK   -1.2021 
      9  C7       24.3055 42.4706 64.0118  C.2 1  UNK    0.0411 
     10   O       25.2135 41.4669 64.1656  O.3 1  UNK   -0.1760 
     11 C11       25.8385 41.4270 65.4711  C.3 1  UNK    0.0470 
     12 C12       27.1547 40.6849 65.2742  C.3 1  UNK   -0.1655 
     13 C13       27.8285 40.4498 66.6239  C.3 1  UNK   -0.0769 
     14 N14       26.9698 39.8028 67.5981  N.3 1  UNK   -0.2937 
     15 C15       25.6790 40.4422 67.7659  C.3 1  UNK   -0.0790 
     16 C16       24.9447 40.6740 66.4482  C.3 1  UNK   -0.1699 
     17 C13       25.9844 44.2283 63.2882  C.2 1  UNK    0.0891 
     18  O1       26.1377 45.2235 62.2864  O.3 1  UNK   -0.1786 
     19 C14       27.5008 45.5666 62.3545  C.2 1  UNK   -0.0670 
     20  N1       28.0961 44.7820 63.2675  N.2 1  UNK   -0.0736 
     21  N2       27.1955 43.9838 63.8305  N.2 1  UNK   -0.0681 
     22 C15       27.9477 46.6859 61.4996  C.3 1  UNK   -0.0759 
     23 C16       27.2880 48.0098 61.8853  C.3 1  UNK   -0.0822 
     24 C17       25.8245 47.9057 61.9437 C.ar 1  UNK   -0.1561 
     25 C18       25.0335 47.6600 63.1490 C.ar 1  UNK   -0.1075 
     26  N3       23.7445 47.3957 62.8034  N.2 1  UNK   -0.0813 
     27  N4       23.6670 47.4483 61.4608 N.pl3 1  UNK   -0.1260 
     28 C19       24.9037 47.8322 60.8883 C.ar 1  UNK   -0.1141 
     29 C20       25.1088 48.0186 59.4440  C.3 1  UNK   -0.1323 
     30 C21       25.5686 47.6761 64.5239  C.3 1  UNK   -0.1399 
     31  H1       20.0802 40.6459 64.8864    H 1  UNK    0.1133 
     32  H2       19.0492 42.7779 64.2080    H 1  UNK    0.1074 
     33  H3       20.4310 44.6990 63.4535    H 1  UNK    0.0841 
     34  H4       22.5827 40.3575 64.8477    H 1  UNK    0.1269 
     35  H5       26.0264 42.4723 65.8350    H 1  UNK    0.0878 
     36  H6       26.9570 39.7102 64.7589    H 1  UNK    0.0906 
     37  H7       27.8353 41.2906 64.6236    H 1  UNK    0.0864 
     38  H8       28.2152 41.4443 66.9989    H 1  UNK    0.0465 
     39  H9       28.7192 39.7771 66.4697    H 1  UNK    0.0826 
     40 H10       27.4399 39.7540 68.4830    H 1  UNK    0.1381 
     41 H11       25.7665 41.4369 68.2977    H 1  UNK    0.0448 
     42 H12       25.0554 39.7659 68.4164    H 1  UNK    0.0842 
     43 H13       24.6447 39.6943 65.9936    H 1  UNK    0.0950 
     44 H14       24.0107 41.2608 66.6416    H 1  UNK    0.1014 
     45 H15       29.0625 46.7911 61.5833    H 1  UNK    0.1206 
     46 H16       27.6943 46.4398 60.4329    H 1  UNK    0.1030 
     47 H17       27.6782 48.3391 62.8867    H 1  UNK    0.1006 
     48 H18       27.5911 48.7841 61.1291    H 1  UNK    0.0932 
     49 H19       22.7882 47.7009 61.0609    H 1  UNK    0.2627 
     50 H20       25.0533 47.0357 58.9097    H 1  UNK    0.1128 
     51 H21       26.1219 48.4603 59.2679    H 1  UNK    0.0880 
     52 H22       24.3383 48.7032 59.0086    H 1  UNK    0.0240 
     53 H23       26.2788 46.8190 64.6577    H 1  UNK    0.0825 
     54 H24       24.7636 47.6055 65.2957    H 1  UNK    0.0915 
     55 H25       26.1321 48.6295 64.6878    H 1  UNK    0.0926 
@<TRIPOS>BOND                                                              
     1      1      2     ar 
     2      1      6     ar 
     3      1     31      1 
     4      2      3     ar 
     5      2     32      1 
     6      3      4     ar 
     7      3     33      1 
     8      4      5     ar 
     9      4      7      1 
    10      5      6     ar 
    11      5      9      1 
    12      6     34      1 
    13      7      8      1 
    14      8      9      2 
    15      8     17      1 
    16      9     10      1 
    17     10     11      1 
    18     11     12      1 
    19     11     16      1 
    20     11     35      1 
    21     12     13      1 
    22     12     36      1 
    23     12     37      1 
    24     13     14      1 
    25     13     38      1 
    26     13     39      1 
    27     14     15      1 
    28     14     40      1 
    29     15     16      1 
    30     15     41      1 
    31     15     42      1 
    32     16     43      1 
    33     16     44      1 
    34     17     18      1 
    35     17     21      2 
    36     18     19      1 
    37     19     20      2 
    38     19     22      1 
    39     20     21      1 
    40     22     23      1 
    41     22     45      1 
    42     22     46      1 
    43     23     24      1 
    44     23     47      1 
    45     23     48      1 
    46     24     25     ar 
    47     24     28     ar 
    48     25     26     ar 
    49     25     30      1 
    50     26     27     ar 
    51     27     28     ar 
    52     27     49      1 
    53     28     29      1 
    54     29     50      1 
    55     29     51      1 
    56     29     52      1 
    57     30     53      1 
    58     30     54      1 
    59     30     55      1 
