@<TRIPOS>MOLECULE
*****
 54  58 0 0 0 
SMALL                                                                       
MULLIKEN                                                                    
                                                                            
@<TRIPOS>ATOM                                                               
      1   C       21.2987 41.8267 64.9366 C.ar 1  UNK   -0.2169 
      2  C1       22.2663 41.3735 65.9060 C.ar 1  UNK   -0.1873 
      3  C2       23.5507 41.7892 65.8624 C.ar 1  UNK   -0.1155 
      4  C3       24.0201 42.7009 64.8559 C.ar 1  UNK   -1.4301 
      5  C4       22.9930 43.1651 63.8656 C.ar 1  UNK   -0.0373 
      6  C5       21.6487 42.6897 63.9533 C.ar 1  UNK   -0.1044 
      7   S       25.2871 43.3010 64.5406  S.3 1  UNK    2.9704 
      8  C6       25.0487 44.1561 63.3651  C.2 1  UNK   -1.4164 
      9  C7       23.6065 44.0226 62.9776  C.2 1  UNK    0.0975 
     10   O       23.0661 44.5420 61.8425  O.3 1  UNK   -0.2263 
     11  C8       22.5390 45.8834 61.9898  C.3 1  UNK   -0.0168 
     12  C9       21.1481 45.8313 62.6088  C.3 1  UNK   -0.2646 
     13 C10       20.5047 47.2151 62.5762  C.3 1  UNK   -0.1462 
     14   N       20.4926 47.8084 61.2532  N.3 1  UNK   -0.4101 
     15 C11       21.7863 47.8159 60.5968  C.3 1  UNK   -0.1468 
     16 C12       22.4703 46.4510 60.5772  C.3 1  UNK   -0.2503 
     17 C13       25.9212 44.9710 62.6047  C.2 1  UNK    0.1307 
     18  O1       27.3107 44.7014 62.7719  O.3 1  UNK   -0.2469 
     19 C14       27.9318 45.6374 61.9186  C.2 1  UNK   -0.0366 
     20  N1       26.9856 46.3736 61.3179  N.2 1  UNK   -0.0835 
     21  N2       25.7835 45.9838 61.7275  N.2 1  UNK   -0.0983 
     22 C15       29.4071 45.6218 61.8715  C.3 1  UNK   -0.1956 
     23 C16       29.9343 46.3655 60.6537  C.3 1  UNK   -0.1622 
     24 C17       31.4007 46.3457 60.6101  C.2 1  UNK   -0.2419 
     25 C18       32.2469 45.2788 60.0567  C.2 1  UNK   -0.0581 
     26  N3       33.5393 45.6420 60.1875  N.2 1  UNK   -0.0600 
     27  O2       33.6034 46.8270 60.7602  O.3 1  UNK   -0.0715 
     28 C19       32.3003 47.3058 61.0392  C.2 1  UNK    0.0177 
     29 C20       32.2032 48.6220 61.6658  C.3 1  UNK   -0.3088 
     30 C21       31.7476 44.0360 59.4402  C.3 1  UNK   -0.2832 
     31   H       20.2706 41.4463 65.0234    H 1  UNK    0.1757 
     32  H1       21.9213 40.6751 66.6821    H 1  UNK    0.1665 
     33  H2       24.2838 41.4368 66.6052    H 1  UNK    0.1356 
     34  H3       20.9327 43.0501 63.1984    H 1  UNK    0.1974 
     35  H4       23.2305 46.4944 62.6286    H 1  UNK    0.1497 
     36  H5       20.5186 45.0980 62.0407    H 1  UNK    0.1515 
     37  H6       21.2132 45.4766 63.6689    H 1  UNK    0.1250 
     38  H7       21.0411 47.8684 63.3280    H 1  UNK    0.0920 
     39  H8       19.4326 47.1264 62.9110    H 1  UNK    0.1337 
     40  H9       20.1331 48.7435 61.3048    H 1  UNK    0.2054 
     41 H10       22.4961 48.5558 61.0743    H 1  UNK    0.0941 
     42 H11       21.6160 48.1483 59.5336    H 1  UNK    0.1425 
     43 H12       21.9083 45.7395 59.9194    H 1  UNK    0.1448 
     44 H13       23.5046 46.5629 60.1638    H 1  UNK    0.1457 
     45 H14       29.8013 46.0932 62.8123    H 1  UNK    0.1794 
     46 H15       29.7571 44.5542 61.8525    H 1  UNK    0.1664 
     47 H16       29.5243 45.8897 59.7209    H 1  UNK    0.1322 
     48 H17       29.5673 47.4282 60.6761    H 1  UNK    0.1579 
     49 H18       32.9203 49.3367 61.1883    H 1  UNK    0.1626 
     50 H19       32.4534 48.5498 62.7551    H 1  UNK    0.1616 
     51 H20       31.1625 49.0180 61.5575    H 1  UNK    0.1526 
     52 H21       30.7746 43.7478 59.9104    H 1  UNK    0.1206 
     53 H22       32.4730 43.1941 59.5633    H 1  UNK    0.1509 
     54 H23       31.5792 44.2013 58.3454    H 1  UNK    0.1555 
@<TRIPOS>BOND                                                              
     1      1      2     ar 
     2      1      6     ar 
     3      1     31      1 
     4      2      3     ar 
     5      2     32      1 
     6      3      4     ar 
     7      3     33      1 
     8      4      5     ar 
     9      4      7      1 
    10      5      6     ar 
    11      5      9      1 
    12      6     34      1 
    13      7      8      1 
    14      8      9      2 
    15      8     17      1 
    16      9     10      1 
    17     10     11      1 
    18     11     12      1 
    19     11     16      1 
    20     11     35      1 
    21     12     13      1 
    22     12     36      1 
    23     12     37      1 
    24     13     14      1 
    25     13     38      1 
    26     13     39      1 
    27     14     15      1 
    28     14     40      1 
    29     15     16      1 
    30     15     41      1 
    31     15     42      1 
    32     16     43      1 
    33     16     44      1 
    34     17     18      1 
    35     17     21      2 
    36     18     19      1 
    37     19     20      2 
    38     19     22      1 
    39     20     21      1 
    40     22     23      1 
    41     22     45      1 
    42     22     46      1 
    43     23     24      1 
    44     23     47      1 
    45     23     48      1 
    46     24     25      1 
    47     24     28      2 
    48     25     26      2 
    49     25     30      1 
    50     26     27      1 
    51     27     28      1 
    52     28     29      1 
    53     29     49      1 
    54     29     50      1 
    55     29     51      1 
    56     30     52      1 
    57     30     53      1 
    58     30     54      1 
