@<TRIPOS>MOLECULE
*****
 54  58 0 0 0 
SMALL                                                                       
CHELPG                                                                    
                                                                            
@<TRIPOS>ATOM                                                               
      1   C       21.3977 40.7724 63.2210 C.ar 1  UNK  -29.0564 
      2  C1       22.4624 40.0574 63.7452 C.ar 1  UNK   15.0168 
      3  C2       23.7485 40.5744 63.7566 C.ar 1  UNK    3.1993 
      4  C3       23.9468 41.8514 63.2167 C.ar 1  UNK  -13.6711 
      5  C4       22.8574 42.6290 62.6659 C.ar 1  UNK  -52.2604 
      6  C5       21.5612 42.0553 62.6926 C.ar 1  UNK   47.8780 
      7   S       25.4267 42.7415 63.0931  S.3 1  UNK   27.8801 
      8  C6       24.7156 44.0667 62.2509  C.2 1  UNK   -4.0596 
      9  C7       23.3146 43.9079 62.1434  C.2 1  UNK   16.2545 
     10   O       22.4266 44.7967 61.5553  O.3 1  UNK   35.1181 
     11  C8       22.3638 46.1735 61.9819  C.3 1  UNK  -157.5208 
     12  C9       22.5852 46.5113 63.4719  C.3 1  UNK   27.0816 
     13 C10       22.7667 48.0351 63.6414  C.3 1  UNK  -104.4664 
     14   N       21.6225 48.7731 63.1125  N.3 1  UNK   65.5159 
     15 C11       21.2906 48.4573 61.7203  C.3 1  UNK  -151.0469 
     16 C12       21.1349 46.9348 61.4566  C.3 1  UNK  -73.8121 
     17 C13       25.5826 45.1384 61.7270  C.2 1  UNK   21.5130 
     18  O1       26.9084 45.1053 62.0299  O.3 1  UNK  -30.7576 
     19 C14       27.3309 46.1660 61.2881  C.2 1  UNK    1.2686 
     20  N1       26.4000 46.7725 60.6078  N.2 1  UNK   26.4847 
     21  N2       25.2371 46.0972 60.9177  N.2 1  UNK   -6.2519 
     22 C15       28.7808 46.5500 61.3564  C.3 1  UNK  -52.7462 
     23 C16       29.7835 45.4486 60.9876  C.3 1  UNK  -95.5462 
     24 C17       31.1921 45.9324 61.2690  C.2 1  UNK  216.3332 
     25 C18       32.1161 45.4727 62.2593  C.2 1  UNK  -155.4608 
     26  N3       33.2236 46.1748 62.1974  N.2 1  UNK   76.9167 
     27  O2       33.1301 47.0845 61.1793  O.3 1  UNK   42.1018 
     28 C19       31.9145 46.9513 60.6304  C.2 1  UNK  -141.0705 
     29 C20       31.5956 47.8943 59.4927  C.3 1  UNK  -128.0749 
     30 C21       31.9621 44.3755 63.2836  C.3 1  UNK  -100.5281 
     31   H       20.4120 40.3322 63.2343    H 1  UNK   19.2243 
     32  H1       22.2855 39.0778 64.1572    H 1  UNK    8.1681 
     33  H2       24.5693 40.0053 64.1685    H 1  UNK   -1.5754 
     34  H3       20.7119 42.5896 62.2941    H 1  UNK  -15.8688 
     35  H4       23.1200 46.6801 61.4167    H 1  UNK   42.4294 
     36  H5       21.7293 46.1771 64.0532    H 1  UNK   19.5358 
     37  H6       23.4567 46.0055 63.8850    H 1  UNK   -4.9947 
     38  H7       23.6723 48.3718 63.1326    H 1  UNK   15.9592 
     39  H8       22.8898 48.2894 64.6923    H 1  UNK   44.1394 
     40  H9       21.7781 49.7667 63.2079    H 1  UNK   10.1747 
     41 H10       22.0764 48.8660 61.0833    H 1  UNK   44.8720 
     42 H11       20.3753 48.9849 61.4515    H 1  UNK   62.1154 
     43 H12       20.2163 46.5486 61.8932    H 1  UNK   45.5762 
     44 H13       21.0314 46.7751 60.3830    H 1  UNK   54.9235 
     45 H14       28.9421 47.3966 60.6906    H 1  UNK   -0.9871 
     46 H15       28.9844 46.9227 62.3530    H 1  UNK   26.1157 
     47 H16       29.5577 44.5457 61.5550    H 1  UNK   13.7075 
     48 H17       29.6683 45.1808 59.9361    H 1  UNK   28.5435 
     49 H18       32.3308 47.8262 58.6910    H 1  UNK   62.4111 
     50 H19       31.5730 48.9321 59.8254    H 1  UNK   53.0525 
     51 H20       30.6235 47.6825 59.0483    H 1  UNK   31.6995 
     52 H21       30.9874 43.8898 63.2365    H 1  UNK   16.9709 
     53 H22       32.0675 44.7704 64.2927    H 1  UNK   43.3918 
     54 H23       32.7206 43.6008 63.1641    H 1  UNK   54.1828 
@<TRIPOS>BOND                                                              
     1      1      2     ar 
     2      1      6     ar 
     3      1     31      1 
     4      2      3     ar 
     5      2     32      1 
     6      3      4     ar 
     7      3     33      1 
     8      4      5     ar 
     9      4      7      1 
    10      5      6     ar 
    11      5      9      1 
    12      6     34      1 
    13      7      8      1 
    14      8      9      2 
    15      8     17      1 
    16      9     10      1 
    17     10     11      1 
    18     11     12      1 
    19     11     16      1 
    20     11     35      1 
    21     12     13      1 
    22     12     36      1 
    23     12     37      1 
    24     13     14      1 
    25     13     38      1 
    26     13     39      1 
    27     14     15      1 
    28     14     40      1 
    29     15     16      1 
    30     15     41      1 
    31     15     42      1 
    32     16     43      1 
    33     16     44      1 
    34     17     18      1 
    35     17     21      2 
    36     18     19      1 
    37     19     20      2 
    38     19     22      1 
    39     20     21      1 
    40     22     23      1 
    41     22     45      1 
    42     22     46      1 
    43     23     24      1 
    44     23     47      1 
    45     23     48      1 
    46     24     25      1 
    47     24     28      2 
    48     25     26      2 
    49     25     30      1 
    50     26     27      1 
    51     27     28      1 
    52     28     29      1 
    53     29     49      1 
    54     29     50      1 
    55     29     51      1 
    56     30     52      1 
    57     30     53      1 
    58     30     54      1 
