@<TRIPOS>MOLECULE
*****
 14 13 0 0 0
SMALL
GASTEIGER

@<TRIPOS>ATOM
      1 C          -8.5520    1.2889    0.0129 C.3     1  LIG11      -0.0653
      2 C          -7.2605    2.0999    0.0665 C.3     1  LIG11      -0.0562
      3 H          -8.6273    0.7453   -0.9529 H       1  LIG11       0.0230
      4 H          -9.4236    1.9704    0.1064 H       1  LIG11       0.0230
      5 H          -8.5823    0.5565    0.8476 H       1  LIG11       0.0230
      6 C          -6.0322    1.1922   -0.0618 C.3     1  LIG11      -0.0562
      7 H          -7.2215    2.6478    1.0333 H       1  LIG11       0.0263
      8 H          -7.2662    2.8400   -0.7633 H       1  LIG11       0.0263
      9 C          -4.7405    2.0024   -0.0009 C.3     1  LIG11      -0.0653
     10 H          -4.7083    2.7414   -0.8296 H       1  LIG11       0.0230
     11 H          -3.8689    1.3213   -0.0976 H       1  LIG11       0.0230
     12 H          -4.6669    2.5383    0.9695 H       1  LIG11       0.0230
     13 H          -6.0696    0.6479   -1.0307 H       1  LIG11       0.0263
     14 H          -6.0281    0.4490    0.7652 H       1  LIG11       0.0263
@<TRIPOS>BOND
     1     1     2    1
     2     1     3    1
     3     1     4    1
     4     1     5    1
     5     6     2    1
     6     2     7    1
     7     2     8    1
     8     9     6    1
     9     9    10    1
    10     9    11    1
    11     9    12    1
    12     6    13    1
    13     6    14    1
