@<TRIPOS>MOLECULE
*****
 8 7 0 0 0
SMALL
GASTEIGER

@<TRIPOS>ATOM
      1 C          -3.1831    2.1545   -0.1519 C.3     1  LIG1       -0.0681
      2 H          -2.0728    2.1592   -0.1567 H       1  LIG1        0.0227
      3 C          -3.6895    1.1567    0.8755 C.3     1  LIG1       -0.0681
      4 H          -3.5501    1.8742   -1.1617 H       1  LIG1        0.0227
      5 H          -3.5501    3.1721    0.0989 H       1  LIG1        0.0227
      6 H          -3.3226    0.1391    0.6248 H       1  LIG1        0.0227
      7 H          -4.7999    1.1520    0.8804 H       1  LIG1        0.0227
      8 H          -3.3226    1.4371    1.8853 H       1  LIG1        0.0227
@<TRIPOS>BOND
     1     1     2    1
     2     1     3    1
     3     1     4    1
     4     1     5    1
     5     3     6    1
     6     3     7    1
     7     3     8    1
