@<TRIPOS>MOLECULE
*****
 9 8 0 0 0
SMALL
GASTEIGER

@<TRIPOS>ATOM
      1 C          -3.3678    2.0903   -0.1058 C.3     1  LIG11       0.0414
      2 C          -1.8462    2.1642   -0.1274 C.3     1  LIG11      -0.0418
      3 O          -3.8017    1.2032    0.8890 O.3     1  LIG11      -0.3953
      4 H          -3.7595    1.7795   -1.1006 H       1  LIG11       0.0554
      5 H          -3.7797    3.0977    0.1142 H       1  LIG11       0.0554
      6 H          -3.6233    0.2873    0.5503 H       1  LIG11       0.2094
      7 H          -1.4194    1.1663   -0.3626 H       1  LIG1        0.0252
      8 H          -1.4682    2.4984    0.8619 H       1  LIG1        0.0252
      9 H          -1.5172    2.8874   -0.9031 H       1  LIG1        0.0252
@<TRIPOS>BOND
     1     1     2    1
     2     1     3    1
     3     1     4    1
     4     1     5    1
     5     3     6    1
     6     2     7    1
     7     2     8    1
     8     2     9    1
