@<TRIPOS>MOLECULE
*****
 5 4 0 0 0
SMALL
GASTEIGER

@<TRIPOS>ATOM
      1 C          -3.2580    2.0070    0.0000 C.3     1  LIG1       -0.0776
      2 H          -2.1880    2.0070    0.0000 H       1  LIG1        0.0194
      3 H          -3.6147    1.3042    0.7237 H       1  LIG1        0.0194
      4 H          -3.6147    1.7317   -0.9705 H       1  LIG1        0.0194
      5 H          -3.6147    2.9852    0.2468 H       1  LIG1        0.0194
@<TRIPOS>BOND
     1     1     2    1
     2     1     3    1
     3     1     4    1
     4     1     5    1
