@<TRIPOS>MOLECULE
*****
 7 6 0 0 0
SMALL
GASTEIGER

@<TRIPOS>ATOM
      1 C          -3.1919    2.1161   -0.1282 C.3     1  LIG1       -0.0188
      2 H          -2.0804    2.1260   -0.1169 H       1  LIG1        0.0386
      3 N          -3.6793    1.2320    0.8392 N.3     1  LIG1       -0.3327
      4 H          -3.5751    1.8375   -1.1337 H       1  LIG1        0.0386
      5 H          -3.5497    3.1394    0.1076 H       1  LIG1        0.0386
      6 H          -3.3553    0.2876    0.6308 H       1  LIG1        0.1180
      7 H          -4.6991    1.2505    0.8337 H       1  LIG1        0.1180
@<TRIPOS>BOND
     1     1     2    1
     2     1     3    1
     3     1     4    1
     4     1     5    1
     5     3     6    1
     6     3     7    1
