@<TRIPOS>MOLECULE
*****
 47   0 0 0 0 
SMALL                                                                       
CHELPG                                                                    
                                                                            
@<TRIPOS>ATOM                                                               
      1   C       -6.5453 -1.0211  0.3914 C.ar 1  UNK   -0.2052 
      2  C1       -6.4591 -2.3461 -0.0575 C.ar 1  UNK   -0.0744 
      3  C2       -5.2228 -2.9064 -0.3994 C.ar 1  UNK   -0.3761 
      4  C3       -4.0853 -2.1055 -0.2876 C.ar 1  UNK    0.3411 
      5  C4       -4.1703 -0.7834  0.1435 C.ar 1  UNK   -0.1903 
      6  C5       -5.3985 -0.2262  0.5044 C.ar 1  UNK   -0.0954 
      7   S       -2.4988 -2.6543 -0.6594  S.3 1  UNK   -0.1381 
      8  C6       -1.9012 -1.0961 -0.2369 C.ar 1  UNK   -0.5707 
      9  C7       -2.9013 -0.1977  0.1428 C.ar 1  UNK    0.6136 
     10  C8       -0.4309 -0.7515 -0.2792  C.2 1  UNK    1.1999 
     11   O       -0.0655  0.3475  0.1091  O.2 1  UNK   -0.7177 
     12  O1        0.4258 -1.6734 -0.7434  O.3 1  UNK   -0.4566 
     13  C9        1.8048 -1.2556 -0.7526  C.3 1  UNK   -0.1487 
     14 C10        2.6387 -2.4331 -1.2710 C.ar 1  UNK    0.2543 
     15  O2       -2.6583  1.1329  0.4770  O.3 1  UNK   -0.7006 
     16 C11       -2.9788  2.0890 -0.5519  C.3 1  UNK    0.8877 
     17 C12       -2.1461  1.8860 -1.8434  C.3 1  UNK   -0.4894 
     18 C13       -2.6679  2.8642 -2.9332  C.3 1  UNK    0.4295 
     19   N       -3.1617  4.1278 -2.3375  N.3 1  UNK   -0.9763 
     20 C14       -2.4460  4.5450 -1.1155  C.3 1  UNK    0.3597 
     21 C15       -2.7150  3.5123  0.0151  C.3 1  UNK   -0.5391 
     22 C16        3.4913 -2.2959 -2.3731 C.ar 1  UNK   -0.2757 
     23 C17        4.2360 -3.3880 -2.8285 C.ar 1  UNK   -0.1102 
     24 C18        4.1338 -4.6238 -2.1838 C.ar 1  UNK   -0.1766 
     25 C19        3.2861 -4.7651 -1.0818 C.ar 1  UNK   -0.1025 
     26 C20        2.5426 -3.6720 -0.6277 C.ar 1  UNK   -0.2647 
     27   H       -7.5128 -0.6055  0.6556    H 1  UNK    0.1565 
     28  H1       -7.3604 -2.9455 -0.1406    H 1  UNK    0.1451 
     29  H2       -5.1490 -3.9335 -0.7416    H 1  UNK    0.2331 
     30  H3       -5.4637  0.7944  0.8662    H 1  UNK    0.1545 
     31  H4        1.9323 -0.3696 -1.3956    H 1  UNK    0.1369 
     32  H5        2.1537 -1.0165  0.2652    H 1  UNK    0.1399 
     33  H6       -4.0444  1.9953 -0.8237    H 1  UNK   -0.0708 
     34  H7       -1.0883  2.0907 -1.6132    H 1  UNK    0.1664 
     35  H8       -2.2170  0.8525 -2.2193    H 1  UNK    0.0710 
     36  H9       -3.5319  2.4145 -3.4491    H 1  UNK   -0.0239 
     37 H10       -1.8749  3.0422 -3.6797    H 1  UNK   -0.0185 
     38 H11       -3.1738  4.9232 -3.0745    H 1  UNK    0.3699 
     39 H12       -2.7747  5.5466 -0.7906    H 1  UNK    0.0308 
     40 H13       -1.3682  4.6033 -1.3453    H 1  UNK   -0.0104 
     41 H14       -3.5915  3.8125  0.6139    H 1  UNK    0.1264 
     42 H15       -1.8418  3.4946  0.6884    H 1  UNK    0.1464 
     43 H16        3.5816 -1.3421 -2.8827    H 1  UNK    0.1630 
     44 H17        4.8948 -3.2765 -3.6843    H 1  UNK    0.1416 
     45 H18        4.7116 -5.4719 -2.5381    H 1  UNK    0.1465 
     46 H19        3.2052 -5.7238 -0.5786    H 1  UNK    0.1394 
     47 H20        1.8872 -3.7879  0.2299    H 1  UNK    0.1784 
@<TRIPOS>BOND                                                              
