@<TRIPOS>MOLECULE
*****
 47   0 0 0 0 
SMALL                                                                       
LOEWDIN                                                                    
                                                                            
@<TRIPOS>ATOM                                                               
      1   C       -6.5453 -1.0211  0.3914 C.ar  1  LIG   -0.1277 
      2  C1       -6.4591 -2.3461 -0.0575 C.ar  1  LIG   -0.1061 
      3  C2       -5.2228 -2.9064 -0.3994 C.ar  1  LIG   -0.1168 
      4  C3       -4.0853 -2.1055 -0.2876 C.ar  1  LIG   -0.1895 
      5  C4       -4.1703 -0.7834  0.1435 C.ar  1  LIG   -0.0774 
      6  C5       -5.3985 -0.2262  0.5044 C.ar  1  LIG   -0.0858 
      7   S       -2.4988 -2.6543 -0.6594 S.3  1  LIG    0.4231 
      8  C6       -1.9012 -1.0961 -0.2369 C.ar  1  LIG   -0.3228 
      9  C7       -2.9013 -0.1977  0.1428 C.ar  1  LIG    0.1926 
     10  C8       -0.4309 -0.7515 -0.2792 C.2  1  LIG    0.3769 
     11   O       -0.0655  0.3475  0.1091 O.2  1  LIG   -0.3643 
     12  O1        0.4258 -1.6734 -0.7434 O.3  1  LIG   -0.3270 
     13  C9        1.8048 -1.2556 -0.7526 C.3  1  LIG    0.0370 
     14 C10        2.6387 -2.4331 -1.2710 C.ar  1  LIG   -0.0453 
     15  O2       -2.6583  1.1329  0.4770 O.3  1  LIG   -0.3243 
     16 C11       -2.9788  2.0890 -0.5519 C.3  1  LIG    0.1007 
     17 C12       -2.1461  1.8860 -1.8434 C.3  1  LIG   -0.2289 
     18 C13       -2.6679  2.8642 -2.9332 C.3  1  LIG   -0.0891 
     19   N       -3.1617  4.1278 -2.3375 N.3  1  LIG   -0.4151 
     20 C14       -2.4460  4.5450 -1.1155 C.3  1  LIG   -0.0892 
     21 C15       -2.7150  3.5123  0.0151 C.3  1  LIG   -0.1974 
     22 C16        3.4913 -2.2959 -2.3731 C.ar  1  LIG   -0.1233 
     23 C17        4.2360 -3.3880 -2.8285 C.ar  1  LIG   -0.1204 
     24 C18        4.1338 -4.6238 -2.1838 C.ar  1  LIG   -0.1211 
     25 C19        3.2861 -4.7651 -1.0818 C.ar  1  LIG   -0.1181 
     26 C20        2.5426 -3.6720 -0.6277 C.ar  1  LIG   -0.1069 
     27   H       -7.5128 -0.6055  0.6556   H  1  LIG    0.1287 
     28  H1       -7.3604 -2.9455 -0.1406   H  1  LIG    0.1299 
     29  H2       -5.1490 -3.9335 -0.7416   H  1  LIG    0.1354 
     30  H3       -5.4637  0.7944  0.8662   H  1  LIG    0.1412 
     31  H4        1.9323 -0.3696 -1.3956   H  1  LIG    0.1182 
     32  H5        2.1537 -1.0165  0.2652   H  1  LIG    0.1246 
     33  H6       -4.0444  1.9953 -0.8237   H  1  LIG    0.0981 
     34  H7       -1.0883  2.0907 -1.6132   H  1  LIG    0.1234 
     35  H8       -2.2170  0.8525 -2.2193   H  1  LIG    0.1151 
     36  H9       -3.5319  2.4145 -3.4491   H  1  LIG    0.1023 
     37 H10       -1.8749  3.0422 -3.6797   H  1  LIG    0.0849 
     38 H11       -3.1738  4.9232 -3.0745   H  1  LIG    0.2146 
     39 H12       -2.7747  5.5466 -0.7906   H  1  LIG    0.1097 
     40 H13       -1.3682  4.6033 -1.3453   H  1  LIG    0.0775 
     41 H14       -3.5915  3.8125  0.6139   H  1  LIG    0.1092 
     42 H15       -1.8418  3.4946  0.6884   H  1  LIG    0.1271 
     43 H16        3.5816 -1.3421 -2.8827   H  1  LIG    0.1224 
     44 H17        4.8948 -3.2765 -3.6843   H  1  LIG    0.1243 
     45 H18        4.7116 -5.4719 -2.5381   H  1  LIG    0.1241 
     46 H19        3.2052 -5.7238 -0.5786   H  1  LIG    0.1250 
     47 H20        1.8872 -3.7879  0.2299   H  1  LIG    0.1305 
@<TRIPOS>BOND                                                              
