#	Name:			2_06a
#	Creating user name:	mariana_garcia
#	Creation time:		Tue Jul 26 16:07:55 2016

#	Modifying user name:	mariana_garcia
#	Modification time:	Tue Jul 26 16:08:05 2016

@<TRIPOS>MOLECULE
2_06a
   51    54     1     1     0
SMALL
USER_CHARGES


@<TRIPOS>ATOM
      1 C          -6.6749   -0.8564    0.6387 C.ar      1 UNNAMED     0.0000 
      2 C1         -6.5545   -2.2163    0.3219 C.ar      1 UNNAMED     0.0000 
      3 C2         -5.2994   -2.7835    0.0730 C.ar      1 UNNAMED     0.0000 
      4 C3         -4.1787   -1.9542    0.1370 C.ar      1 UNNAMED     0.0000 
      5 C4         -4.2980   -0.5966    0.4275 C.ar      1 UNNAMED     0.0000 
      6 C5         -5.5448   -0.0332    0.7070 C.ar      1 UNNAMED     0.0000 
      7 S          -2.5805   -2.5082   -0.1259 S.3       1 UNNAMED     0.0000 
      8 C6         -2.0145   -0.9127    0.1533 C.ar      1 UNNAMED     0.0000 
      9 C7         -3.0382    0.0076    0.3905 C.ar      1 UNNAMED     0.0000 
     10 C8         -0.5450   -0.5541    0.1393 C.2       1 UNNAMED     0.0000 
     11 O           0.2410   -1.4096   -0.2357 O.2       1 UNNAMED     0.0000 
     12 N          -0.1428    0.6774    0.5311 N.am      1 UNNAMED     0.0000 
     13 C9          1.2693    1.0460    0.4758 C.3       1 UNNAMED     0.0000 
     14 O1         -2.8174    1.3731    0.5629 O.3       1 UNNAMED     0.0000 
     15 C10        -3.1885    2.1962   -0.5597 C.3       1 UNNAMED     0.0000 
     16 C11        -2.4357    1.7909   -1.8614 C.3       1 UNNAMED     0.0000 
     17 C12        -2.2598    3.0011   -2.8229 C.3       1 UNNAMED     0.0000 
     18 N1         -3.3791    3.9517   -2.6730 N.3       1 UNNAMED     0.0000 
     19 C13        -3.4509    4.5886   -1.3345 C.3       1 UNNAMED     0.0000 
     20 C14        -2.8767    3.6715   -0.2168 C.3       1 UNNAMED     0.0000 
     21 H1         -7.6563   -0.4357    0.8350 H         1 UNNAMED     0.0000 
     22 H2         -7.4434   -2.8374    0.2700 H         1 UNNAMED     0.0000 
     23 H3         -5.1990   -3.8378   -0.1632 H         1 UNNAMED     0.0000 
     24 H4         -5.6385    1.0134    0.9757 H         1 UNNAMED     0.0000 
     25 H5         -0.7996    1.3449    0.8867 H         1 UNNAMED     0.0000 
     26 H6          1.7194    0.6833   -0.4632 H         1 UNNAMED     0.0000 
     27 H7          1.7986    0.5775    1.3211 H         1 UNNAMED     0.0000 
     28 C28         1.4554    2.5839    0.5333 C.3       1 UNNAMED     0.0000 
     29 C29         2.9473    2.9312    0.4302 C.ar      1 UNNAMED     0.0000 
     30 C30         3.5331    3.1696   -0.8184 C.ar      1 UNNAMED     0.0000 
     31 C31         4.8891    3.4966   -0.9116 C.ar      1 UNNAMED     0.0000 
     32 C32         5.6692    3.5820    0.2449 C.ar      1 UNNAMED     0.0000 
     33 C33         5.0910    3.3372    1.4934 C.ar      1 UNNAMED     0.0000 
     34 C34         3.7348    3.0103    1.5845 C.ar      1 UNNAMED     0.0000 
     35 H8         -4.2768    2.1229   -0.7222 H         1 UNNAMED     0.0000 
     36 H9         -3.0029    0.9845   -2.3559 H         1 UNNAMED     0.0000 
     37 H10        -1.4337    1.3992   -1.6309 H         1 UNNAMED     0.0000 
     38 H11        -2.1884    2.6571   -3.8680 H         1 UNNAMED     0.0000 
     39 H12        -1.3297    3.5481   -2.5947 H         1 UNNAMED     0.0000 
     40 H13        -4.3144    3.4661   -2.9292 H         1 UNNAMED     0.0000 
     41 H14        -4.5003    4.8419   -1.1034 H         1 UNNAMED     0.0000 
     42 H15        -2.8830    5.5322   -1.3636 H         1 UNNAMED     0.0000 
     43 H16        -1.7830    3.7842   -0.1367 H         1 UNNAMED     0.0000 
     44 H17        -3.3133    3.9426    0.7588 H         1 UNNAMED     0.0000 
     45 H18         1.0440    2.9781    1.4764 H         1 UNNAMED     0.0000 
     46 H19         0.8995    3.0516   -0.2953 H         1 UNNAMED     0.0000 
     47 H20         2.9372    3.1004   -1.7229 H         1 UNNAMED     0.0000 
     48 H21         5.3369    3.6841   -1.8827 H         1 UNNAMED     0.0000 
     49 H22         6.7219    3.8375    0.1734 H         1 UNNAMED     0.0000 
     50 H23         5.6957    3.4007    2.3929 H         1 UNNAMED     0.0000 
     51 H24         3.2961    2.8164    2.5581 H         1 UNNAMED     0.0000 
@<TRIPOS>BOND
     1    1    2 ar   
     2    6    1 ar   
     3   13   28 1    
     4    3    2 ar   
     5   28   29 1    
     6    4    3 ar   
     7   29   30 ar   
     8    5    4 ar   
     9    7    4 ar   
    10    5    6 ar   
    11    9    5 ar   
    12   30   31 ar   
    13    8    7 ar   
    14    8    9 ar   
    15   10    8 1    
    16    9   14 1    
    17   10   11 2    
    18   12   10 am   
    19   12   13 1    
    20   31   32 ar   
    21    1   21 1    
    22   32   33 ar   
    23   33   34 ar   
    24   14   15 1    
    25   15   16 1    
    26   15   20 1    
    27   29   34 ar   
    28   16   17 1    
    29    2   22 1    
    30    3   23 1    
    31   17   18 1    
    32    6   24 1    
    33   12   25 1    
    34   18   19 1    
    35   13   26 1    
    36   20   19 1    
    37   13   27 1    
    38   15   35 1    
    39   16   36 1    
    40   16   37 1    
    41   17   38 1    
    42   17   39 1    
    43   18   40 1    
    44   19   41 1    
    45   19   42 1    
    46   20   43 1    
    47   20   44 1    
    48   28   45 1    
    49   28   46 1    
    50   30   47 1    
    51   31   48 1    
    52   32   49 1    
    53   33   50 1    
    54   34   51 1    
@<TRIPOS>SUBSTRUCTURE
     1 UNNAMED     1 TEMP              0 ****  ****    0 ROOT 
@<TRIPOS>NORMAL
@<TRIPOS>FF_PBC
FORCE_FIELD_SETUP_FEATURE Force Field Setup information
v1.0  0 0.000000 0.000000 0.000000 0.000000 0.000000 0.000000 NONE 0 0 0 0 0 0 0 0 0 0 0 0 0
