@<TRIPOS>MOLECULE
*****
 51   0 0 0 0 
SMALL                                                                       
LOEWDIN                                                                    
                                                                            
@<TRIPOS>ATOM                                                               
      1   C       -6.6749 -0.8564  0.6387 C.ar  1  LIG   -0.1258 
      2  C1       -6.5545 -2.2163  0.3219 C.ar  1  LIG   -0.1124 
      3  C2       -5.2994 -2.7835  0.0730 C.ar  1  LIG   -0.1112 
      4  C3       -4.1787 -1.9542  0.1370 C.ar  1  LIG   -0.2000 
      5  C4       -4.2980 -0.5966  0.4275 C.ar  1  LIG   -0.0719 
      6  C5       -5.5448 -0.0332  0.7070 C.ar  1  LIG   -0.1007 
      7   S       -2.5805 -2.5082 -0.1259 S.3  1  LIG    0.4567 
      8  C6       -2.0145 -0.9127  0.1533 C.ar  1  LIG   -0.2954 
      9  C7       -3.0382  0.0076  0.3905 C.ar  1  LIG    0.1428 
     10  C8       -0.5450 -0.5541  0.1393 C.2  1  LIG    0.3231 
     11   O        0.2410 -1.4096 -0.2357 O.2  1  LIG   -0.4121 
     12   N       -0.1428  0.6774  0.5311 N.am  1  LIG   -0.3664 
     13  C9        1.2693  1.0460  0.4758 C.3  1  LIG   -0.0513 
     14  O1       -2.8174  1.3731  0.5629 O.3  1  LIG   -0.3478 
     15 C10       -3.1885  2.1962 -0.5597 C.3  1  LIG    0.0917 
     16 C11       -2.4357  1.7909 -1.8614 C.3  1  LIG   -0.2479 
     17 C12       -2.2598  3.0011 -2.8229 C.3  1  LIG   -0.0893 
     18  N1       -3.3791  3.9517 -2.6730 N.3  1  LIG   -0.3984 
     19 C13       -3.4509  4.5886 -1.3345 C.3  1  LIG   -0.0883 
     20 C14       -2.8767  3.6715 -0.2168 C.3  1  LIG   -0.2241 
     21  H1       -7.6563 -0.4357  0.8350   H  1  LIG    0.1274 
     22  H2       -7.4434 -2.8374  0.2700   H  1  LIG    0.1298 
     23  H3       -5.1990 -3.8378 -0.1632   H  1  LIG    0.1367 
     24  H4       -5.6385  1.0134  0.9757   H  1  LIG    0.1343 
     25  H5       -0.7996  1.3449  0.8867   H  1  LIG    0.2638 
     26  H6        1.7194  0.6833 -0.4632   H  1  LIG    0.1234 
     27  H7        1.7986  0.5775  1.3211   H  1  LIG    0.1085 
     28 C28        1.4554  2.5839  0.5333 C.3  1  LIG   -0.1890 
     29 C29        2.9473  2.9312  0.4302 C.ar  1  LIG   -0.0260 
     30 C30        3.5331  3.1696 -0.8184 C.ar  1  LIG   -0.1292 
     31 C31        4.8891  3.4966 -0.9116 C.ar  1  LIG   -0.1149 
     32 C32        5.6692  3.5820  0.2449 C.ar  1  LIG   -0.1280 
     33 C33        5.0910  3.3372  1.4934 C.ar  1  LIG   -0.1150 
     34 C34        3.7348  3.0103  1.5845 C.ar  1  LIG   -0.1289 
     35  H8       -4.2768  2.1229 -0.7222   H  1  LIG    0.0930 
     36  H9       -3.0029  0.9845 -2.3559   H  1  LIG    0.1113 
     37 H10       -1.4337  1.3992 -1.6309   H  1  LIG    0.1255 
     38 H11       -2.1884  2.6571 -3.8680   H  1  LIG    0.1167 
     39 H12       -1.3297  3.5481 -2.5947   H  1  LIG    0.1045 
     40 H13       -4.3144  3.4661 -2.9292   H  1  LIG    0.2101 
     41 H14       -4.5003  4.8419 -1.1034   H  1  LIG    0.1061 
     42 H15       -2.8830  5.5322 -1.3636   H  1  LIG    0.1090 
     43 H16       -1.7830  3.7842 -0.1367   H  1  LIG    0.1071 
     44 H17       -3.3133  3.9426  0.7588   H  1  LIG    0.1198 
     45 H18        1.0440  2.9781  1.4764   H  1  LIG    0.1090 
     46 H19        0.8995  3.0516 -0.2953   H  1  LIG    0.1078 
     47 H20        2.9372  3.1004 -1.7229   H  1  LIG    0.1215 
     48 H21        5.3369  3.6841 -1.8827   H  1  LIG    0.1244 
     49 H22        6.7219  3.8375  0.1734   H  1  LIG    0.1237 
     50 H23        5.6957  3.4007  2.3929   H  1  LIG    0.1242 
     51 H24        3.2961  2.8164  2.5581   H  1  LIG    0.1220 
@<TRIPOS>BOND                                                              
