@<TRIPOS>MOLECULE
*****
 51   0 0 0 0 
SMALL                                                                       
MULLIKEN                                                                    
                                                                            
@<TRIPOS>ATOM                                                               
      1   C       -6.6749 -0.8564  0.6387 C.ar  1  LIG   -0.2292 
      2  C1       -6.5545 -2.2163  0.3219 C.ar  1  LIG   -0.1836 
      3  C2       -5.2994 -2.7835  0.0730 C.ar  1  LIG   -0.1851 
      4  C3       -4.1787 -1.9542  0.1370 C.ar  1  LIG   -0.4623 
      5  C4       -4.2980 -0.5966  0.4275 C.ar  1  LIG    0.0219 
      6  C5       -5.5448 -0.0332  0.7070 C.ar  1  LIG   -0.1136 
      7   S       -2.5805 -2.5082 -0.1259 S.3  1  LIG    0.6967 
      8  C6       -2.0145 -0.9127  0.1533 C.ar  1  LIG   -0.5351 
      9  C7       -3.0382  0.0076  0.3905 C.ar  1  LIG    0.4603 
     10  C8       -0.5450 -0.5541  0.1393 C.2  1  LIG    0.8222 
     11   O        0.2410 -1.4096 -0.2357 O.2  1  LIG   -0.6194 
     12   N       -0.1428  0.6774  0.5311 N.am  1  LIG   -0.9553 
     13  C9        1.2693  1.0460  0.4758 C.3  1  LIG   -0.0085 
     14  O1       -2.8174  1.3731  0.5629 O.3  1  LIG   -0.7937 
     15 C10       -3.1885  2.1962 -0.5597 C.3  1  LIG    0.1622 
     16 C11       -2.4357  1.7909 -1.8614 C.3  1  LIG   -0.3604 
     17 C12       -2.2598  3.0011 -2.8229 C.3  1  LIG   -0.1266 
     18  N1       -3.3791  3.9517 -2.6730 N.3  1  LIG   -0.7227 
     19 C13       -3.4509  4.5886 -1.3345 C.3  1  LIG   -0.1027 
     20 C14       -2.8767  3.6715 -0.2168 C.3  1  LIG   -0.3493 
     21  H1       -7.6563 -0.4357  0.8350   H  1  LIG    0.2066 
     22  H2       -7.4434 -2.8374  0.2700   H  1  LIG    0.2099 
     23  H3       -5.1990 -3.8378 -0.1632   H  1  LIG    0.2258 
     24  H4       -5.6385  1.0134  0.9757   H  1  LIG    0.2309 
     25  H5       -0.7996  1.3449  0.8867   H  1  LIG    0.4349 
     26  H6        1.7194  0.6833 -0.4632   H  1  LIG    0.2039 
     27  H7        1.7986  0.5775  1.3211   H  1  LIG    0.1840 
     28 C28        1.4554  2.5839  0.5333 C.3  1  LIG   -0.3629 
     29 C29        2.9473  2.9312  0.4302 C.ar  1  LIG   -0.0152 
     30 C30        3.5331  3.1696 -0.8184 C.ar  1  LIG   -0.2055 
     31 C31        4.8891  3.4966 -0.9116 C.ar  1  LIG   -0.1943 
     32 C32        5.6692  3.5820  0.2449 C.ar  1  LIG   -0.2028 
     33 C33        5.0910  3.3372  1.4934 C.ar  1  LIG   -0.1945 
     34 C34        3.7348  3.0103  1.5845 C.ar  1  LIG   -0.2053 
     35  H8       -4.2768  2.1229 -0.7222   H  1  LIG    0.1674 
     36  H9       -3.0029  0.9845 -2.3559   H  1  LIG    0.1757 
     37 H10       -1.4337  1.3992 -1.6309   H  1  LIG    0.1985 
     38 H11       -2.1884  2.6571 -3.8680   H  1  LIG    0.1876 
     39 H12       -1.3297  3.5481 -2.5947   H  1  LIG    0.1736 
     40 H13       -4.3144  3.4661 -2.9292   H  1  LIG    0.3061 
     41 H14       -4.5003  4.8419 -1.1034   H  1  LIG    0.1680 
     42 H15       -2.8830  5.5322 -1.3636   H  1  LIG    0.1818 
     43 H16       -1.7830  3.7842 -0.1367   H  1  LIG    0.1694 
     44 H17       -3.3133  3.9426  0.7588   H  1  LIG    0.1838 
     45 H18        1.0440  2.9781  1.4764   H  1  LIG    0.1714 
     46 H19        0.8995  3.0516 -0.2953   H  1  LIG    0.1719 
     47 H20        2.9372  3.1004 -1.7229   H  1  LIG    0.2028 
     48 H21        5.3369  3.6841 -1.8827   H  1  LIG    0.2028 
     49 H22        6.7219  3.8375  0.1734   H  1  LIG    0.2013 
     50 H23        5.6957  3.4007  2.3929   H  1  LIG    0.2025 
     51 H24        3.2961  2.8164  2.5581   H  1  LIG    0.2040 
@<TRIPOS>BOND                                                              
