@<TRIPOS>MOLECULE
*****
 53   0 0 0 0 
SMALL                                                                       
LOEWDIN                                                                    
                                                                            
@<TRIPOS>ATOM                                                               
      1   C       -4.6836 -1.0707  2.7545 C.ar  1  LIG   -0.1262 
      2  C1       -3.8211 -2.1754  2.7736 C.ar  1  LIG   -0.1036 
      3  C2       -2.5154 -2.0724  2.2797 C.ar  1  LIG   -0.1155 
      4  C3       -2.1033 -0.8433  1.7628 C.ar  1  LIG   -0.1920 
      5  C4       -2.9644  0.2520  1.7293 C.ar  1  LIG   -0.0765 
      6  C5       -4.2614  0.1598  2.2377 C.ar  1  LIG   -0.0872 
      7   S       -0.5350 -0.5617  1.1339 S.3  1  LIG    0.4462 
      8  C6       -0.9980  1.0557  0.8059 C.ar  1  LIG   -0.2930 
      9  C7       -2.3203  1.3458  1.1451 C.ar  1  LIG    0.1863 
     10  C8       -0.0502  2.0257  0.2148 C.ar  1  LIG    0.2643 
     11   O       -0.3132  3.3759  0.1580 O.3  1  LIG   -0.1873 
     12   N        1.1409  1.7180 -0.3187 N.ar  1  LIG   -0.2821 
     13  O1       -2.9240  2.5806  0.9185 O.3  1  LIG   -0.3265 
     14 C14       -3.7936  2.6216 -0.2284 C.3  1  LIG    0.0898 
     15 C15       -3.0280  2.3284 -1.5460 C.3  1  LIG   -0.2247 
     16 C16       -3.9755  2.4867 -2.7611 C.3  1  LIG   -0.0878 
     17 N17       -4.5626  3.8441 -2.7648 N.3  1  LIG   -0.4002 
     18 C18       -5.3321  4.1621 -1.5428 C.3  1  LIG   -0.0909 
     19 C19       -4.4139  4.0385 -0.3017 C.3  1  LIG   -0.1965 
     20  N2        0.8737  3.8903 -0.4964 N.ar  1  LIG   -0.1127 
     21 C14        1.6972  2.8568 -0.7505 C.ar  1  LIG    0.0964 
     22 C15        3.0639  2.9604 -1.4219 C.3  1  LIG   -0.1598 
     23 C16        4.0170  1.9620 -0.7513 C.ar  1  LIG   -0.0148 
     24 C17        5.0662  2.4051  0.0614 C.ar  1  LIG   -0.1473 
     25 C18        5.9149  1.4798  0.6739 C.ar  1  LIG   -0.1035 
     26 C19        5.7060  0.1112  0.4862 C.ar  1  LIG   -0.1456 
     27 C20        4.6567 -0.3459 -0.3161 C.ar  1  LIG    0.1691 
     28 C21        3.8294  0.5894 -0.9532 C.ar  1  LIG   -0.1602 
     29  O2        4.4690 -1.7295 -0.4516 O.3  1  LIG   -0.3664 
     30 C22        3.3195 -2.2759 -1.1184 C.3  1  LIG   -0.0787 
     31  H1       -5.6915 -1.1695  3.1457   H  1  LIG    0.1297 
     32  H2       -4.1684 -3.1218  3.1765   H  1  LIG    0.1317 
     33  H3       -1.8418 -2.9229  2.2973   H  1  LIG    0.1367 
     34  H4       -4.9240  1.0187  2.2358   H  1  LIG    0.1404 
     35  H5       -4.6051  1.8843 -0.1085   H  1  LIG    0.0874 
     36  H6       -2.6152  1.3064 -1.5356   H  1  LIG    0.1082 
     37  H7       -2.1937  3.0397 -1.6500   H  1  LIG    0.1344 
     38  H8       -4.7721  1.7248 -2.7197   H  1  LIG    0.0729 
     39  H9       -3.4007  2.3353 -3.6902   H  1  LIG    0.1124 
     40 H10       -5.1773  3.9877 -3.6466   H  1  LIG    0.2130 
     41 H11       -6.1939  3.4807 -1.4438   H  1  LIG    0.0721 
     42 H12       -5.7135  5.1947 -1.6089   H  1  LIG    0.1133 
     43 H13       -4.9897  4.2406  0.6167   H  1  LIG    0.1114 
     44 H14       -3.6048  4.7836 -0.3733   H  1  LIG    0.1337 
     45 H15        3.4285  3.9954 -1.3378   H  1  LIG    0.1434 
     46 H16        2.9558  2.7152 -2.4893   H  1  LIG    0.1405 
     47 H17        5.2277  3.4660  0.2228   H  1  LIG    0.1224 
     48 H18        6.7353  1.8237  1.2964   H  1  LIG    0.1279 
     49 H19        6.3628 -0.6057  0.9682   H  1  LIG    0.1369 
     50 H20        3.0297  0.2738 -1.6116   H  1  LIG    0.1334 
     51 H21        2.3883 -1.9299 -0.6433   H  1  LIG    0.1083 
     52 H22        3.3706 -3.3709 -1.0299   H  1  LIG    0.1200 
     53 H23        3.3203 -2.0171 -2.1881   H  1  LIG    0.0965 
@<TRIPOS>BOND                                                              
