@<TRIPOS>MOLECULE
*****
 49  53 0 0 0 
SMALL                                                                       
ORIGINAL                                                                    
                                                                            
@<TRIPOS>ATOM                                                               
      1   C       -5.8941 -2.1982  0.2186 C.ar 1  UNK    0.0000 
      2  C1       -4.9906 -3.0639  0.8497 C.ar 1  UNK    0.0000 
      3  C2       -3.6470 -2.7050  1.0086 C.ar 1  UNK    0.0000 
      4  C3       -3.2292 -1.4685  0.5129 C.ar 1  UNK    0.0000 
      5  C4       -4.1249 -0.6174 -0.1337 C.ar 1  UNK    0.0000 
      6  C5       -5.4719 -0.9573 -0.2723 C.ar 1  UNK    0.0000 
      7   S       -1.6868 -0.9217  0.6468  S.3 1  UNK    0.0000 
      8  C6       -2.1161  0.4954 -0.1514 C.ar 1  UNK    0.0000 
      9  C7       -3.4488  0.5274 -0.5581 C.ar 1  UNK    0.0000 
     10  C8       -1.1407  1.5851 -0.3778 C.ar 1  UNK    0.0000 
     11   N       -1.4716  2.8202 -0.7973 N.ar 1  UNK    0.0000 
     12   O        0.1735  1.4045 -0.1722  O.3 1  UNK    0.0000 
     13  O1       -4.0200  1.5635 -1.2946  O.3 1  UNK    0.0000 
     14  C9       -4.2402  1.2514 -2.6831  C.3 1  UNK    0.0000 
     15 C10       -2.9112  0.9050 -3.4146  C.3 1  UNK    0.0000 
     16 C11       -3.0102  1.1809 -4.9419  C.3 1  UNK    0.0000 
     17  N1       -4.4138  1.0376 -5.3778  N.3 1  UNK    0.0000 
     18 C12       -5.3366  2.0485 -4.8101  C.3 1  UNK    0.0000 
     19 C13       -4.9089  2.4622 -3.3741  C.3 1  UNK    0.0000 
     20  N2       -0.3306  3.4944 -0.8835 N.ar 1  UNK    0.0000 
     21 C14        0.6279  2.6299 -0.5038 C.ar 1  UNK    0.0000 
     22 C15        2.1064  3.0016 -0.4446  C.3 1  UNK    0.0000 
     23 C16        2.7114  2.3792  0.8196 C.ar 1  UNK    0.0000 
     24 C17        2.8491  3.1333  1.9906 C.ar 1  UNK    0.0000 
     25 C18        3.4068  2.5604  3.1374 C.ar 1  UNK    0.0000 
     26 C19        3.8257  1.2272  3.1209 C.ar 1  UNK    0.0000 
     27 C20        3.6849  0.4682  1.9560 C.ar 1  UNK    0.0000 
     28 C21        3.1281  1.0432  0.8099 C.ar 1  UNK    0.0000 
     29   H       -6.9335 -2.4921  0.1098    H 1  UNK    0.0000 
     30  H1       -5.3362 -4.0238  1.2210    H 1  UNK    0.0000 
     31  H2       -2.9484 -3.3713  1.5045    H 1  UNK    0.0000 
     32  H3       -6.1751 -0.2786 -0.7428    H 1  UNK    0.0000 
     33  H4       -4.9399  0.4023 -2.7653    H 1  UNK    0.0000 
     34  H5       -2.0828  1.5071 -3.0103    H 1  UNK    0.0000 
     35  H6       -2.6778 -0.1566 -3.2260    H 1  UNK    0.0000 
     36  H7       -2.3557  0.4820 -5.4896    H 1  UNK    0.0000 
     37  H8       -2.6778  2.2067 -5.1770    H 1  UNK    0.0000 
     38  H9       -4.4866  1.0134 -6.4595    H 1  UNK    0.0000 
     39 H10       -6.3288  1.5697 -4.7753    H 1  UNK    0.0000 
     40 H11       -5.4088  2.9462 -5.4477    H 1  UNK    0.0000 
     41 H12       -5.7860  2.8029 -2.7992    H 1  UNK    0.0000 
     42 H13       -4.1814  3.2901 -3.4032    H 1  UNK    0.0000 
     43 H14        2.6066  2.6121 -1.3442    H 1  UNK    0.0000 
     44 H15        2.2112  4.0974 -0.4384    H 1  UNK    0.0000 
     45 H16        2.5218  4.1678  2.0161    H 1  UNK    0.0000 
     46 H17        3.5145  3.1513  4.0419    H 1  UNK    0.0000 
     47 H18        4.2593  0.7821  4.0112    H 1  UNK    0.0000 
     48 H19        4.0077 -0.5683  1.9414    H 1  UNK    0.0000 
     49 H20        3.0186  0.4455 -0.0895    H 1  UNK    0.0000 
@<TRIPOS>BOND                                                              
     1      1      2     ar 
     2      1      6     ar 
     3      1     29      1 
     4      2      3     ar 
     5      2     30      1 
     6      3      4     ar 
     7      3     31      1 
     8      4      5     ar 
     9      4      7     ar 
    10      5      6     ar 
    11      5      9     ar 
    12      6     32      1 
    13      7      8     ar 
    14      8      9     ar 
    15      8     10      1 
    16      9     13      1 
    17     10     11     ar 
    18     10     12     ar 
    19     11     20     ar 
    20     12     21     ar 
    21     13     14      1 
    22     14     15      1 
    23     14     19      1 
    24     14     33      1 
    25     15     16      1 
    26     15     34      1 
    27     15     35      1 
    28     16     17      1 
    29     16     36      1 
    30     16     37      1 
    31     17     18      1 
    32     17     38      1 
    33     18     19      1 
    34     18     39      1 
    35     18     40      1 
    36     19     41      1 
    37     19     42      1 
    38     20     21     ar 
    39     21     22      1 
    40     22     23      1 
    41     22     43      1 
    42     22     44      1 
    43     23     24     ar 
    44     23     28     ar 
    45     24     25     ar 
    46     24     45      1 
    47     25     26     ar 
    48     25     46      1 
    49     26     27     ar 
    50     26     47      1 
    51     27     28     ar 
    52     27     48      1 
    53     28     49      1 
