@<TRIPOS>MOLECULE
*****
 49  53 0 0 0 
SMALL                                                                       
ORIGINAL                                                                    
                                                                            
@<TRIPOS>ATOM                                                               
      1   C       -6.3270 -2.3941 -0.8002 C.ar 1  UNK    0.0000 
      2  C1       -5.5519 -3.5616 -0.8376 C.ar 1  UNK    0.0000 
      3  C2       -4.1787 -3.5201 -0.5682 C.ar 1  UNK    0.0000 
      4  C3       -3.6034 -2.2842 -0.2677 C.ar 1  UNK    0.0000 
      5  C4       -4.3735 -1.1236 -0.2419 C.ar 1  UNK    0.0000 
      6  C5       -5.7453 -1.1580 -0.4954 C.ar 1  UNK    0.0000 
      7   S       -1.9869 -2.0840  0.0798  S.3 1  UNK    0.0000 
      8  C6       -2.2415 -0.4403  0.2964 C.ar 1  UNK    0.0000 
      9  C7       -3.5557 -0.0349  0.0612 C.ar 1  UNK    0.0000 
     10   O       -3.9969  1.2863  0.1124  O.3 1  UNK    0.0000 
     11  C8       -3.5406  2.1010 -0.9841  C.3 1  UNK    0.0000 
     12  C9       -4.0286  3.5534 -0.7780  C.3 1  UNK    0.0000 
     13 C10       -3.3640  4.4618 -1.8502  C.3 1  UNK    0.0000 
     14   N       -3.1327  3.7238 -3.1144  N.3 1  UNK    0.0000 
     15 C11       -4.1454  2.6912 -3.4129  C.3 1  UNK    0.0000 
     16 C12       -4.0637  1.5624 -2.3465  C.3 1  UNK    0.0000 
     17 C13       -1.1456  0.4658  0.7062 C.ar 1  UNK    0.0000 
     18  O1        0.1673  0.1602  0.4641  O.3 1  UNK    0.0000 
     19 C14        0.7418  1.3217  0.9663 C.ar 1  UNK    0.0000 
     20  N1       -0.1374  2.1891  1.4989 N.ar 1  UNK    0.0000 
     21  N2       -1.3367  1.6425  1.3318 N.ar 1  UNK    0.0000 
     22 C15        2.2404  1.5917  0.9124  C.3 1  UNK    0.0000 
     23 C16        2.5115  2.3268 -0.4046 C.ar 1  UNK    0.0000 
     24   F        2.6076  2.3582  1.9752    F 1  UNK    0.0000 
     25 C17        2.3365  3.7133 -0.4772 C.ar 1  UNK    0.0000 
     26 C18        2.5893  4.3959 -1.6706 C.ar 1  UNK    0.0000 
     27 C19        3.0140  3.6931 -2.8014 C.ar 1  UNK    0.0000 
     28 C20        3.1818  2.3072 -2.7364 C.ar 1  UNK    0.0000 
     29 C21        2.9275  1.6261 -1.5424 C.ar 1  UNK    0.0000 
     30  F1        2.9186  0.4136  0.9737    F 1  UNK    0.0000 
     31   H       -7.3909 -2.4482 -1.0095    H 1  UNK    0.0000 
     32  H1       -6.0217 -4.5104 -1.0777    H 1  UNK    0.0000 
     33  H2       -3.5778 -4.4235 -0.5924    H 1  UNK    0.0000 
     34  H3       -6.3423 -0.2529 -0.4553    H 1  UNK    0.0000 
     35  H4       -2.4378  2.1325 -0.9976    H 1  UNK    0.0000 
     36  H5       -5.1267  3.5684 -0.8745    H 1  UNK    0.0000 
     37  H6       -3.7727  3.9092  0.2339    H 1  UNK    0.0000 
     38  H7       -2.3695  4.7806 -1.4975    H 1  UNK    0.0000 
     39  H8       -3.9810  5.3634 -2.0048    H 1  UNK    0.0000 
     40  H9       -3.0170  4.4100 -3.9460    H 1  UNK    0.0000 
     41 H10       -3.9875  2.2655 -4.4181    H 1  UNK    0.0000 
     42 H11       -5.1405  3.1683 -3.4025    H 1  UNK    0.0000 
     43 H12       -3.3884  0.7580 -2.6838    H 1  UNK    0.0000 
     44 H13       -5.0681  1.1271 -2.2233    H 1  UNK    0.0000 
     45 H14        2.0003  4.2669  0.3936    H 1  UNK    0.0000 
     46 H15        2.4553  5.4722 -1.7195    H 1  UNK    0.0000 
     47 H16        3.2126  4.2225 -3.7283    H 1  UNK    0.0000 
     48 H17        3.5096  1.7593 -3.6146    H 1  UNK    0.0000 
     49 H18        3.0532  0.5489 -1.5076    H 1  UNK    0.0000 
@<TRIPOS>BOND                                                              
     1      1      2     ar 
     2      1      6     ar 
     3      1     31      1 
     4      2      3     ar 
     5      2     32      1 
     6      3      4     ar 
     7      3     33      1 
     8      4      5     ar 
     9      4      7     ar 
    10      5      6     ar 
    11      5      9     ar 
    12      6     34      1 
    13      7      8     ar 
    14      8      9     ar 
    15      8     17      1 
    16      9     10      1 
    17     10     11      1 
    18     11     12      1 
    19     11     16      1 
    20     11     35      1 
    21     12     13      1 
    22     12     36      1 
    23     12     37      1 
    24     13     14      1 
    25     13     38      1 
    26     13     39      1 
    27     14     15      1 
    28     14     40      1 
    29     15     16      1 
    30     15     41      1 
    31     15     42      1 
    32     16     43      1 
    33     16     44      1 
    34     17     18     ar 
    35     17     21     ar 
    36     18     19     ar 
    37     19     20     ar 
    38     19     22      1 
    39     20     21     ar 
    40     22     23      1 
    41     22     24      1 
    42     22     30      1 
    43     23     25     ar 
    44     23     29     ar 
    45     25     26     ar 
    46     25     45      1 
    47     26     27     ar 
    48     26     46      1 
    49     27     28     ar 
    50     27     47      1 
    51     28     29     ar 
    52     28     48      1 
    53     29     49      1 
