@<TRIPOS>MOLECULE
*****
 52   0 0 0 0 
SMALL                                                                       
LOEWDIN                                                                    
                                                                            
@<TRIPOS>ATOM                                                               
      1   C       -3.0835 -0.7161  3.5703 C.ar  1  LIG   -0.1239 
      2  C1       -2.2426 -1.8347  3.4944 C.ar  1  LIG   -0.1106 
      3  C2       -1.2782 -1.9366  2.4853 C.ar  1  LIG   -0.1148 
      4  C3       -1.1844 -0.8991  1.5564 C.ar  1  LIG   -0.1912 
      5  C4       -2.0300  0.2084  1.6208 C.ar  1  LIG   -0.0684 
      6  C5       -2.9806  0.3222  2.6371 C.ar  1  LIG   -0.0930 
      7   S       -0.0417 -0.8830  0.2702 S.3  1  LIG    0.3969 
      8  C6       -0.6986  0.6624 -0.2213 C.ar  1  LIG   -0.2620 
      9  C7       -1.7608  1.0946  0.5734 C.ar  1  LIG    0.1732 
     10   O       -2.4711  2.2702  0.3411 O.3  1  LIG   -0.3220 
     11 C11       -3.7451  2.0840 -0.3038 C.3  1  LIG    0.0911 
     12 C12       -3.5930  1.4567 -1.7150 C.3  1  LIG   -0.2227 
     13 C13       -4.9729  1.3725 -2.4138 C.3  1  LIG   -0.0888 
     14 N14       -5.5834  2.7178 -2.4805 N.3  1  LIG   -0.4005 
     15 C15       -5.7808  3.3471 -1.1570 C.3  1  LIG   -0.0912 
     16 C16       -4.4184  3.4726 -0.4311 C.3  1  LIG   -0.1963 
     17 C13       -0.1520  1.4085 -1.3760 C.ar  1  LIG    0.1397 
     18  O1        0.6793  0.8443 -2.2296 O.3  1  LIG   -0.1459 
     19 C14        0.8928  1.8072 -3.0455 C.ar  1  LIG    0.1334 
     20  N1        0.2431  2.9511 -2.7612 N.ar  1  LIG   -0.1689 
     21  N3       -0.4423  2.6916 -1.6548 N.ar  1  LIG   -0.1243 
     22 C15        1.8225  1.6636 -4.2457 C.3  1  LIG   -0.1520 
     23 C16        3.1722  1.1621 -3.7356 C.ar  1  LIG   -0.1493 
     24 C17        3.6516 -0.1409 -3.6800 C.ar  1  LIG    0.0492 
     25 N25        5.2486  1.1201 -2.8523 N.ar  1  LIG   -0.2146 
     26 N26        4.9790 -0.2019 -3.2263 N.3  1  LIG   -0.1876 
     27 C18        4.2156  1.9172 -3.2047 C.ar  1  LIG    0.0384 
     28 C19        4.2210  3.4329 -3.0209 C.3  1  LIG   -0.3020 
     29 C20        2.8276 -1.3718 -4.0572 C.3  1  LIG   -0.3107 
     30  H1       -3.8232 -0.6529  4.3624   H  1  LIG    0.1288 
     31  H2       -2.3392 -2.6308  4.2262   H  1  LIG    0.1302 
     32  H3       -0.6207 -2.7977  2.4253   H  1  LIG    0.1347 
     33  H4       -3.6222  1.1944  2.7052   H  1  LIG    0.1400 
     34  H5       -4.3859  1.4339  0.3153   H  1  LIG    0.0860 
     35  H6       -3.1566  0.4469 -1.6457   H  1  LIG    0.1059 
     36  H7       -2.9236  2.0846 -2.3236   H  1  LIG    0.1335 
     37  H8       -5.6320  0.6795 -1.8642   H  1  LIG    0.0723 
     38  H9       -4.8373  0.9823 -3.4364   H  1  LIG    0.1103 
     39 H10       -6.5204  2.6811 -3.0250   H  1  LIG    0.2120 
     40 H11       -6.4791  2.7488 -0.5478   H  1  LIG    0.0717 
     41 H12       -6.2131  4.3528 -1.2908   H  1  LIG    0.1124 
     42 H13       -4.5624  3.9095  0.5710   H  1  LIG    0.1108 
     43 H14       -3.7599  4.1418 -1.0085   H  1  LIG    0.1342 
     44 H15        1.9491  2.6361 -4.7446   H  1  LIG    0.1528 
     45 H16        1.3863  0.9513 -4.9612   H  1  LIG    0.1348 
     46 H17        5.0841 -0.8814 -2.3927   H  1  LIG    0.2718 
     47 H18        4.2681  3.9207 -4.0057   H  1  LIG    0.1245 
     48 H19        5.0944  3.7352 -2.4241   H  1  LIG    0.1383 
     49 H20        3.3026  3.7454 -2.5015   H  1  LIG    0.1297 
     50 H21        1.8736 -1.3631 -3.5092   H  1  LIG    0.1325 
     51 H22        3.3797 -2.2884 -3.8019   H  1  LIG    0.1218 
     52 H23        2.6286 -1.3632 -5.1390   H  1  LIG    0.1298 
@<TRIPOS>BOND                                                              
