@<TRIPOS>MOLECULE
*****
 52  56 0 0 0 
SMALL                                                                       
ORIGINAL                                                                    
                                                                            
@<TRIPOS>ATOM                                                               
      1   C       -3.0835 -0.7161  3.5703 C.ar 1  UNK    0.0000 
      2  C1       -2.2426 -1.8347  3.4944 C.ar 1  UNK    0.0000 
      3  C2       -1.2782 -1.9366  2.4853 C.ar 1  UNK    0.0000 
      4  C3       -1.1844 -0.8991  1.5564 C.ar 1  UNK    0.0000 
      5  C4       -2.0300  0.2084  1.6208 C.ar 1  UNK    0.0000 
      6  C5       -2.9806  0.3222  2.6371 C.ar 1  UNK    0.0000 
      7   S       -0.0417 -0.8830  0.2702  S.3 1  UNK    0.0000 
      8  C6       -0.6986  0.6624 -0.2213 C.ar 1  UNK    0.0000 
      9  C7       -1.7608  1.0946  0.5734 C.ar 1  UNK    0.0000 
     10   O       -2.4711  2.2702  0.3411  O.3 1  UNK    0.0000 
     11 C11       -3.7451  2.0840 -0.3038  C.3 1  UNK    0.0000 
     12 C12       -3.5930  1.4567 -1.7150  C.3 1  UNK    0.0000 
     13 C13       -4.9729  1.3725 -2.4138  C.3 1  UNK    0.0000 
     14 N14       -5.5834  2.7178 -2.4805  N.3 1  UNK    0.0000 
     15 C15       -5.7808  3.3471 -1.1570  C.3 1  UNK    0.0000 
     16 C16       -4.4184  3.4726 -0.4311  C.3 1  UNK    0.0000 
     17 C13       -0.1520  1.4085 -1.3760 C.ar 1  UNK    0.0000 
     18  O1        0.6793  0.8443 -2.2296  O.3 1  UNK    0.0000 
     19 C14        0.8928  1.8072 -3.0455 C.ar 1  UNK    0.0000 
     20  N1        0.2431  2.9511 -2.7612 N.ar 1  UNK    0.0000 
     21  N3       -0.4423  2.6916 -1.6548 N.ar 1  UNK    0.0000 
     22 C15        1.8225  1.6636 -4.2457  C.3 1  UNK    0.0000 
     23 C16        3.1722  1.1621 -3.7356 C.ar 1  UNK    0.0000 
     24 C17        3.6516 -0.1409 -3.6800 C.ar 1  UNK    0.0000 
     25 N25        5.2486  1.1201 -2.8523 N.ar 1  UNK    0.0000 
     26 N26        4.9790 -0.2019 -3.2263  N.3 1  UNK    0.0000 
     27 C18        4.2156  1.9172 -3.2047 C.ar 1  UNK    0.0000 
     28 C19        4.2210  3.4329 -3.0209  C.3 1  UNK    0.0000 
     29 C20        2.8276 -1.3718 -4.0572  C.3 1  UNK    0.0000 
     30  H1       -3.8232 -0.6529  4.3624    H 1  UNK    0.0000 
     31  H2       -2.3392 -2.6308  4.2262    H 1  UNK    0.0000 
     32  H3       -0.6207 -2.7977  2.4253    H 1  UNK    0.0000 
     33  H4       -3.6222  1.1944  2.7052    H 1  UNK    0.0000 
     34  H5       -4.3859  1.4339  0.3153    H 1  UNK    0.0000 
     35  H6       -3.1566  0.4469 -1.6457    H 1  UNK    0.0000 
     36  H7       -2.9236  2.0846 -2.3236    H 1  UNK    0.0000 
     37  H8       -5.6320  0.6795 -1.8642    H 1  UNK    0.0000 
     38  H9       -4.8373  0.9823 -3.4364    H 1  UNK    0.0000 
     39 H10       -6.5204  2.6811 -3.0250    H 1  UNK    0.0000 
     40 H11       -6.4791  2.7488 -0.5478    H 1  UNK    0.0000 
     41 H12       -6.2131  4.3528 -1.2908    H 1  UNK    0.0000 
     42 H13       -4.5624  3.9095  0.5710    H 1  UNK    0.0000 
     43 H14       -3.7599  4.1418 -1.0085    H 1  UNK    0.0000 
     44 H15        1.9491  2.6361 -4.7446    H 1  UNK    0.0000 
     45 H16        1.3863  0.9513 -4.9612    H 1  UNK    0.0000 
     46 H17        5.0841 -0.8814 -2.3927    H 1  UNK    0.0000 
     47 H18        4.2681  3.9207 -4.0057    H 1  UNK    0.0000 
     48 H19        5.0944  3.7352 -2.4241    H 1  UNK    0.0000 
     49 H20        3.3026  3.7454 -2.5015    H 1  UNK    0.0000 
     50 H21        1.8736 -1.3631 -3.5092    H 1  UNK    0.0000 
     51 H22        3.3797 -2.2884 -3.8019    H 1  UNK    0.0000 
     52 H23        2.6286 -1.3632 -5.1390    H 1  UNK    0.0000 
@<TRIPOS>BOND                                                              
     1      1      2     ar 
     2      6      1     ar 
     3     10     11      1 
     4      3      2     ar 
     5     11     12      1 
     6      4      3     ar 
     7     12     13      1 
     8      5      4     ar 
     9      7      4     ar 
    10      5      6     ar 
    11      9      5     ar 
    12     13     14      1 
    13      8      7     ar 
    14      9      8     ar 
    15      8     17      1 
    16      9     10      1 
    17     14     15      1 
    18     15     16      1 
    19     11     16      1 
    20      1     30      1 
    21      2     31      1 
    22      3     32      1 
    23      6     33      1 
    24     11     34      1 
    25     12     35      1 
    26     12     36      1 
    27     13     37      1 
    28     13     38      1 
    29     14     39      1 
    30     15     40      1 
    31     15     41      1 
    32     16     42      1 
    33     16     43      1 
    34     17     18     ar 
    35     17     21     ar 
    36     18     19     ar 
    37     19     20     ar 
    38     19     22      1 
    39     21     20     ar 
    40     22     23      1 
    41     22     44      1 
    42     22     45      1 
    43     23     24     ar 
    44     23     27     ar 
    45     27     25     ar 
    46     24     29      1 
    47     25     26     ar 
    48     26     46      1 
    49     24     26     ar 
    50     27     28      1 
    51     28     47      1 
    52     28     48      1 
    53     28     49      1 
    54     29     50      1 
    55     29     51      1 
    56     29     52      1 
