#	Name:			1_01
#	Creating user name:	Mariana
#	Creation time:		Wed Jan 11 14:03:24 2017

#	Modifying user name:	Mariana
#	Modification time:	Wed Jan 11 14:03:24 2017

@<TRIPOS>MOLECULE
1_01
   43    45     1     1     0
SMALL
NO_CHARGES


@<TRIPOS>ATOM
      1 C          -5.7628   -2.5283    0.5739 C.ar      1 UNNAMED     0.0000 
      2 C1         -5.5130   -3.5701   -0.3297 C.ar      1 UNNAMED     0.0000 
      3 C2         -4.2704   -3.6795   -0.9659 C.ar      1 UNNAMED     0.0000 
      4 C3         -3.2783   -2.7480   -0.6561 C.ar      1 UNNAMED     0.0000 
      5 C4         -3.5227   -1.7323    0.2604 C.ar      1 UNNAMED     0.0000 
      6 C5         -4.7790   -1.5721    0.8483 C.ar      1 UNNAMED     0.0000 
      7 O          -2.0527   -2.7767   -1.2102 O.3       1 UNNAMED     0.0000 
      8 C6         -1.4858   -1.6636   -0.5464 C.ar      1 UNNAMED     0.0000 
      9 C7         -2.3219   -1.0406    0.3843 C.ar      1 UNNAMED     0.0000 
     10 C8         -1.9770    0.1163    1.3257 C.3       1 UNNAMED     0.0000 
     11 C9         -0.0769   -1.1972   -0.8449 C.2       1 UNNAMED     0.0000 
     12 O1          0.3489   -0.1859   -0.3080 O.2       1 UNNAMED     0.0000 
     13 O2          0.6751   -1.9143   -1.6945 O.3       1 UNNAMED     0.0000 
     14 C10         1.9674   -1.3470   -1.9927 C.3       1 UNNAMED     0.0000 
     15 C15         1.8510   -0.0928   -2.8977 C.3       1 UNNAMED     0.0000 
     16 O16        -5.0584   -0.4897    1.6798 O.3       1 UNNAMED     0.0000 
     17 C17        -5.4017    0.7293    0.9935 C.3       1 UNNAMED     0.0000 
     18 C18        -6.7021    0.5708    0.1623 C.3       1 UNNAMED     0.0000 
     19 C19        -7.1157    1.9323   -0.4529 C.3       1 UNNAMED     0.0000 
     20 N20        -7.2591    2.9571    0.6033 N.3       1 UNNAMED     0.0000 
     21 C21        -6.0339    3.1594    1.4059 C.3       1 UNNAMED     0.0000 
     22 C22        -5.6008    1.8271    2.0679 C.3       1 UNNAMED     0.0000 
     23 H1         -6.7273   -2.4550    1.0654 H         1 UNNAMED     0.0000 
     24 H2         -6.2901   -4.2988   -0.5401 H         1 UNNAMED     0.0000 
     25 H3         -4.0746   -4.4695   -1.6831 H         1 UNNAMED     0.0000 
     26 H4         -1.9268    1.0538    0.7527 H         1 UNNAMED     0.0000 
     27 H5         -1.0026   -0.0717    1.8001 H         1 UNNAMED     0.0000 
     28 H6         -2.7239    0.2158    2.1243 H         1 UNNAMED     0.0000 
     29 H7          2.5132   -2.1220   -2.5543 H         1 UNNAMED     0.0000 
     30 H8          2.5440   -1.1308   -1.0771 H         1 UNNAMED     0.0000 
     31 H9          2.8534    0.2467   -3.2028 H         1 UNNAMED     0.0000 
     32 H10         1.3492    0.7369   -2.3789 H         1 UNNAMED     0.0000 
     33 H11         1.2720   -0.3417   -3.8005 H         1 UNNAMED     0.0000 
     34 H12        -4.5780    1.0309    0.3240 H         1 UNNAMED     0.0000 
     35 H13        -7.5064    0.2035    0.8194 H         1 UNNAMED     0.0000 
     36 H14        -6.5550   -0.1604   -0.6490 H         1 UNNAMED     0.0000 
     37 H15        -8.0680    1.8269   -0.9997 H         1 UNNAMED     0.0000 
     38 H16        -6.3521    2.2664   -1.1742 H         1 UNNAMED     0.0000 
     39 H17        -8.1027    2.7280    1.2454 H         1 UNNAMED     0.0000 
     40 H18        -6.2173    3.9243    2.1792 H         1 UNNAMED     0.0000 
     41 H19        -5.2303    3.5329    0.7502 H         1 UNNAMED     0.0000 
     42 H20        -6.3785    1.4998    2.7766 H         1 UNNAMED     0.0000 
     43 H21        -4.6642    1.9731    2.6306 H         1 UNNAMED     0.0000 
@<TRIPOS>BOND
     1    1    2 ar   
     2    1    6 ar   
     3    6   16 1    
     4    2    3 ar   
     5   16   17 1    
     6    3    4 ar   
     7   17   18 1    
     8    4    5 ar   
     9    4    7 ar   
    10    6    5 ar   
    11    5    9 ar   
    12   18   19 1    
    13    7    8 ar   
    14    9    8 ar   
    15    8   11 1    
    16    9   10 1    
    17   19   20 1    
    18   20   21 1    
    19   21   22 1    
    20   11   12 2    
    21   11   13 1    
    22   13   14 1    
    23   14   15 1    
    24   17   22 1    
    25    1   23 1    
    26    2   24 1    
    27    3   25 1    
    28   10   26 1    
    29   10   27 1    
    30   10   28 1    
    31   14   29 1    
    32   14   30 1    
    33   15   31 1    
    34   15   32 1    
    35   15   33 1    
    36   17   34 1    
    37   18   35 1    
    38   18   36 1    
    39   19   37 1    
    40   19   38 1    
    41   20   39 1    
    42   21   40 1    
    43   21   41 1    
    44   22   42 1    
    45   22   43 1    
@<TRIPOS>SUBSTRUCTURE
     1 UNNAMED     1 TEMP              0 ****  ****    0 ROOT 
@<TRIPOS>NORMAL
@<TRIPOS>FF_PBC
FORCE_FIELD_SETUP_FEATURE Force Field Setup information
v1.0  0 0.000000 0.000000 0.000000 0.000000 0.000000 0.000000 NONE 0 0 0 0 1 0 0 0 0 0 0 0 0
