#	Name:			1_05
#	Creating user name:	Mariana
#	Creation time:		Wed Jan 11 13:43:58 2017

#	Modifying user name:	Mariana
#	Modification time:	Wed Jan 11 13:43:58 2017

@<TRIPOS>MOLECULE
1_05
   40    42     1     1     0
SMALL
NO_CHARGES


@<TRIPOS>ATOM
      1 C          -5.7681   -2.5217    0.5709 C.ar      1 UNNAMED     0.0000 
      2 C1         -5.5164   -3.5507   -0.3491 C.ar      1 UNNAMED     0.0000 
      3 C2         -4.2648   -3.6803   -0.9658 C.ar      1 UNNAMED     0.0000 
      4 C3         -3.2707   -2.7554   -0.6453 C.ar      1 UNNAMED     0.0000 
      5 C4         -3.5386   -1.7393    0.2638 C.ar      1 UNNAMED     0.0000 
      6 C5         -4.7720   -1.5934    0.8971 C.ar      1 UNNAMED     0.0000 
      7 O          -1.9946   -2.7846   -1.1920 O.3       1 UNNAMED     0.0000 
      8 C6         -1.4508   -1.6688   -0.5246 C.ar      1 UNNAMED     0.0000 
      9 C7         -2.3524   -1.0250    0.3218 C.ar      1 UNNAMED     0.0000 
     10 C8         -0.0171   -1.2239   -0.7138 C.2       1 UNNAMED     0.0000 
     11 O1          0.4107   -0.2759   -0.0734 O.2       1 UNNAMED     0.0000 
     12 O2          0.7518   -1.8831   -1.5946 O.3       1 UNNAMED     0.0000 
     13 C9          2.1277   -1.4528   -1.6438 C.3       1 UNNAMED     0.0000 
     14 C10         2.9137   -1.8903   -0.3803 C.3       1 UNNAMED     0.0000 
     15 O3         -2.1230    0.1195    1.0845 O.3       1 UNNAMED     0.0000 
     16 C11        -2.1813    1.3581    0.3531 C.3       1 UNNAMED     0.0000 
     17 C12        -3.6070    1.6193   -0.1979 C.3       1 UNNAMED     0.0000 
     18 C13        -3.6724    3.0120   -0.8726 C.3       1 UNNAMED     0.0000 
     19 N          -3.2572    4.0508    0.0949 N.3       1 UNNAMED     0.0000 
     20 C14        -1.8875    3.8682    0.6221 C.3       1 UNNAMED     0.0000 
     21 C15        -1.7888    2.4939    1.3284 C.3       1 UNNAMED     0.0000 
     22 H          -6.7460   -2.4431    1.0363 H         1 UNNAMED     0.0000 
     23 H1         -6.3037   -4.2594   -0.5878 H         1 UNNAMED     0.0000 
     24 H2         -4.0648   -4.4761   -1.6754 H         1 UNNAMED     0.0000 
     25 H3         -4.9459   -0.7950    1.6110 H         1 UNNAMED     0.0000 
     26 H4          2.5711   -1.9631   -2.5138 H         1 UNNAMED     0.0000 
     27 H5          2.2142   -0.3662   -1.8152 H         1 UNNAMED     0.0000 
     28 H6          3.9823   -1.6518   -0.4991 H         1 UNNAMED     0.0000 
     29 H7          2.5455   -1.3821    0.5228 H         1 UNNAMED     0.0000 
     30 H8          2.8076   -2.9769   -0.2376 H         1 UNNAMED     0.0000 
     31 H9         -1.4622    1.3474   -0.4836 H         1 UNNAMED     0.0000 
     32 H10        -3.8877    0.8429   -0.9278 H         1 UNNAMED     0.0000 
     33 H11        -4.3253    1.5893    0.6368 H         1 UNNAMED     0.0000 
     34 H12        -4.7082    3.2064   -1.1990 H         1 UNNAMED     0.0000 
     35 H13        -3.0208    3.0318   -1.7626 H         1 UNNAMED     0.0000 
     36 H14        -3.3690    5.0397   -0.3378 H         1 UNNAMED     0.0000 
     37 H15        -1.6632    4.6651    1.3512 H         1 UNNAMED     0.0000 
     38 H16        -1.1472    3.9285   -0.1937 H         1 UNNAMED     0.0000 
     39 H17        -2.4732    2.4798    2.1920 H         1 UNNAMED     0.0000 
     40 H18        -0.7631    2.3261    1.6970 H         1 UNNAMED     0.0000 
@<TRIPOS>BOND
     1    1    2 ar   
     2    1    6 ar   
     3    1   22 1    
     4    2    3 ar   
     5    2   23 1    
     6    3    4 ar   
     7    3   24 1    
     8    4    5 ar   
     9    4    7 ar   
    10    5    6 ar   
    11    5    9 ar   
    12    6   25 1    
    13    7    8 ar   
    14    8    9 ar   
    15    8   10 1    
    16    9   15 1    
    17   10   11 2    
    18   10   12 1    
    19   12   13 1    
    20   13   14 1    
    21   13   26 1    
    22   13   27 1    
    23   14   28 1    
    24   14   29 1    
    25   14   30 1    
    26   15   16 1    
    27   16   17 1    
    28   16   21 1    
    29   16   31 1    
    30   17   18 1    
    31   17   32 1    
    32   17   33 1    
    33   18   19 1    
    34   18   34 1    
    35   18   35 1    
    36   19   20 1    
    37   19   36 1    
    38   20   21 1    
    39   20   37 1    
    40   20   38 1    
    41   21   39 1    
    42   21   40 1    
@<TRIPOS>SUBSTRUCTURE
     1 UNNAMED     1 TEMP              0 ****  ****    0 ROOT 
@<TRIPOS>NORMAL
@<TRIPOS>FF_PBC
FORCE_FIELD_SETUP_FEATURE Force Field Setup information
v1.0  0 0.000000 0.000000 0.000000 0.000000 0.000000 0.000000 NONE 0 0 0 0 1 0 0 0 0 0 0 0 0
