#	Name:			1_09
#	Creating user name:	Mariana
#	Creation time:		Wed Jan 11 13:44:15 2017

#	Modifying user name:	Mariana
#	Modification time:	Wed Jan 11 13:44:15 2017

@<TRIPOS>MOLECULE
1_09
   40    42     1     1     0
SMALL
NO_CHARGES


@<TRIPOS>ATOM
      1 C          -5.7721   -2.5085    0.5828 C.ar      1 UNNAMED     0.0000 
      2 C1         -5.5792   -3.5528   -0.3318 C.ar      1 UNNAMED     0.0000 
      3 C2         -4.3454   -3.7261   -0.9699 C.ar      1 UNNAMED     0.0000 
      4 C3         -3.3210   -2.8255   -0.6746 C.ar      1 UNNAMED     0.0000 
      5 C4         -3.5150   -1.7776    0.2222 C.ar      1 UNNAMED     0.0000 
      6 C5         -4.7373   -1.6125    0.8765 C.ar      1 UNNAMED     0.0000 
      7 S          -1.7571   -2.9143   -1.3663 S.3       1 UNNAMED     0.0000 
      8 C6         -1.3124   -1.5211   -0.4597 C.ar      1 UNNAMED     0.0000 
      9 C7         -2.3513   -1.0105    0.3231 C.ar      1 UNNAMED     0.0000 
     10 C8          0.0776   -0.9323   -0.5290 C.2       1 UNNAMED     0.0000 
     11 O           0.3623    0.0381    0.1545 O.2       1 UNNAMED     0.0000 
     12 O1          0.9657   -1.4979   -1.3602 O.3       1 UNNAMED     0.0000 
     13 C9          2.2930   -0.9357   -1.3049 C.3       1 UNNAMED     0.0000 
     14 C10         3.0272   -1.3200    0.0062 C.3       1 UNNAMED     0.0000 
     15 O2         -2.2461    0.1324    1.1138 O.3       1 UNNAMED     0.0000 
     16 C11        -2.8297    1.3265    0.5591 C.3       1 UNNAMED     0.0000 
     17 C12        -2.1528    1.7685   -0.7626 C.3       1 UNNAMED     0.0000 
     18 C13        -2.9488    2.9667   -1.3511 C.3       1 UNNAMED     0.0000 
     19 N          -3.5516    3.7885   -0.2751 N.3       1 UNNAMED     0.0000 
     20 C14        -2.7431    3.8654    0.9585 C.3       1 UNNAMED     0.0000 
     21 C15        -2.6853    2.4574    1.6145 C.3       1 UNNAMED     0.0000 
     22 H          -6.7352   -2.3927    1.0709 H         1 UNNAMED     0.0000 
     23 H1         -6.3952   -4.2360   -0.5479 H         1 UNNAMED     0.0000 
     24 H2         -4.1877   -4.5365   -1.6741 H         1 UNNAMED     0.0000 
     25 H3         -4.8799   -0.8131    1.5962 H         1 UNNAMED     0.0000 
     26 H4          2.8449   -1.3829   -2.1471 H         1 UNNAMED     0.0000 
     27 H5          2.2846    0.1575   -1.4553 H         1 UNNAMED     0.0000 
     28 H6          4.0730   -0.9768   -0.0322 H         1 UNNAMED     0.0000 
     29 H7          2.5483   -0.8678    0.8870 H         1 UNNAMED     0.0000 
     30 H8          3.0184   -2.4144    0.1270 H         1 UNNAMED     0.0000 
     31 H9         -3.9003    1.1581    0.3489 H         1 UNNAMED     0.0000 
     32 H10        -1.1153    2.0641   -0.5388 H         1 UNNAMED     0.0000 
     33 H11        -2.1209    0.9510   -1.5002 H         1 UNNAMED     0.0000 
     34 H12        -3.7899    2.5895   -1.9562 H         1 UNNAMED     0.0000 
     35 H13        -2.2913    3.5614   -2.0087 H         1 UNNAMED     0.0000 
     36 H14        -3.8051    4.7784   -0.6402 H         1 UNNAMED     0.0000 
     37 H15        -3.1738    4.5901    1.6703 H         1 UNNAMED     0.0000 
     38 H16        -1.7304    4.2161    0.6941 H         1 UNNAMED     0.0000 
     39 H17        -3.4926    2.3390    2.3564 H         1 UNNAMED     0.0000 
     40 H18        -1.7250    2.3524    2.1465 H         1 UNNAMED     0.0000 
@<TRIPOS>BOND
     1    1    2 ar   
     2    1    6 ar   
     3    1   22 1    
     4    2    3 ar   
     5    2   23 1    
     6    3    4 ar   
     7    3   24 1    
     8    4    5 ar   
     9    4    7 ar   
    10    5    6 ar   
    11    5    9 ar   
    12    6   25 1    
    13    7    8 ar   
    14    8    9 ar   
    15    8   10 1    
    16    9   15 1    
    17   10   11 2    
    18   10   12 1    
    19   12   13 1    
    20   13   14 1    
    21   13   26 1    
    22   13   27 1    
    23   14   28 1    
    24   14   29 1    
    25   14   30 1    
    26   15   16 1    
    27   16   17 1    
    28   16   21 1    
    29   16   31 1    
    30   17   18 1    
    31   17   32 1    
    32   17   33 1    
    33   18   19 1    
    34   18   34 1    
    35   18   35 1    
    36   19   20 1    
    37   19   36 1    
    38   20   21 1    
    39   20   37 1    
    40   20   38 1    
    41   21   39 1    
    42   21   40 1    
@<TRIPOS>SUBSTRUCTURE
     1 UNNAMED     1 TEMP              0 ****  ****    0 ROOT 
@<TRIPOS>NORMAL
@<TRIPOS>FF_PBC
FORCE_FIELD_SETUP_FEATURE Force Field Setup information
v1.0  0 0.000000 0.000000 0.000000 0.000000 0.000000 0.000000 NONE 0 0 0 0 1 0 0 0 0 0 0 0 0
