#	Name:			1_12b
#	Creating user name:	Mariana
#	Creation time:		Wed Jan 11 13:45:03 2017

#	Modifying user name:	Mariana
#	Modification time:	Wed Jan 11 13:45:03 2017

@<TRIPOS>MOLECULE
1_12b
   51    54     1     1     0
SMALL
NO_CHARGES


@<TRIPOS>ATOM
      1 C          -5.7721   -2.5085    0.5828 C.ar      1 UNNAMED     0.0000 
      2 C1         -5.5791   -3.5529   -0.3318 C.ar      1 UNNAMED     0.0000 
      3 C2         -4.3453   -3.7261   -0.9699 C.ar      1 UNNAMED     0.0000 
      4 C3         -3.3211   -2.8253   -0.6746 C.ar      1 UNNAMED     0.0000 
      5 C4         -3.5151   -1.7775    0.2224 C.ar      1 UNNAMED     0.0000 
      6 C5         -4.7375   -1.6123    0.8764 C.ar      1 UNNAMED     0.0000 
      7 S          -1.7561   -2.9134   -1.3670 S.3       1 UNNAMED     0.0000 
      8 C6         -1.3125   -1.5211   -0.4600 C.ar      1 UNNAMED     0.0000 
      9 C7         -2.3512   -1.0108    0.3232 C.ar      1 UNNAMED     0.0000 
     10 C8          0.0770   -0.9312   -0.5289 C.2       1 UNNAMED     0.0000 
     11 O           0.3745    0.0289    0.1642 O.2       1 UNNAMED     0.0000 
     12 O1          0.9654   -1.4863   -1.3651 O.3       1 UNNAMED     0.0000 
     13 C9          2.2587   -0.8486   -1.3541 C.3       1 UNNAMED     0.0000 
     14 C10         3.1702   -1.6131   -2.3219 C.ar      1 UNNAMED     0.0000 
     15 O2         -2.2453    0.1321    1.1138 O.3       1 UNNAMED     0.0000 
     16 C11        -2.8257    1.3269    0.5570 C.3       1 UNNAMED     0.0000 
     17 C12        -2.1457    1.7661   -0.7639 C.3       1 UNNAMED     0.0000 
     18 C13        -2.9374    2.9661   -1.3545 C.3       1 UNNAMED     0.0000 
     19 N          -3.5402    3.7899   -0.2801 N.3       1 UNNAMED     0.0000 
     20 C14        -2.7339    3.8659    0.9548 C.3       1 UNNAMED     0.0000 
     21 C15        -2.6805    2.4581    1.6120 C.3       1 UNNAMED     0.0000 
     22 C16         3.8920   -0.9504   -3.3218 C.ar      1 UNNAMED     0.0000 
     23 C17         4.7158   -1.6693   -4.1915 C.ar      1 UNNAMED     0.0000 
     24 C18         4.8158   -3.0579   -4.0746 C.ar      1 UNNAMED     0.0000 
     25 C19         4.1007   -3.7255   -3.0766 C.ar      1 UNNAMED     0.0000 
     26 C20         3.2823   -3.0030   -2.2033 C.ar      1 UNNAMED     0.0000 
     27 O3          5.4385   -0.9981   -5.1774 O.3       1 UNNAMED     0.0000 
     28 C21         6.7888   -0.6932   -4.7948 C.3       1 UNNAMED     0.0000 
     29 H          -6.7352   -2.3927    1.0708 H         1 UNNAMED     0.0000 
     30 H1         -6.3950   -4.2363   -0.5477 H         1 UNNAMED     0.0000 
     31 H2         -4.1874   -4.5365   -1.6741 H         1 UNNAMED     0.0000 
     32 H3         -4.8802   -0.8126    1.5957 H         1 UNNAMED     0.0000 
     33 H4          2.1669    0.2079   -1.6549 H         1 UNNAMED     0.0000 
     34 H5          2.7173   -0.8980   -0.3529 H         1 UNNAMED     0.0000 
     35 H6         -3.8964    1.1602    0.3455 H         1 UNNAMED     0.0000 
     36 H7         -1.1076    2.0585   -0.5387 H         1 UNNAMED     0.0000 
     37 H8         -2.1152    0.9482   -1.5012 H         1 UNNAMED     0.0000 
     38 H9         -3.7782    2.5909   -1.9612 H         1 UNNAMED     0.0000 
     39 H10        -2.2770    3.5589   -2.0110 H         1 UNNAMED     0.0000 
     40 H11        -3.7912    4.7801   -0.6463 H         1 UNNAMED     0.0000 
     41 H12        -3.1642    4.5921    1.6653 H         1 UNNAMED     0.0000 
     42 H13        -1.7199    4.2140    0.6919 H         1 UNNAMED     0.0000 
     43 H14        -3.4896    2.3422    2.3524 H         1 UNNAMED     0.0000 
     44 H15        -1.7216    2.3515    2.1459 H         1 UNNAMED     0.0000 
     45 H16         3.8233    0.1259   -3.4348 H         1 UNNAMED     0.0000 
     46 H17         5.4482   -3.6125   -4.7597 H         1 UNNAMED     0.0000 
     47 H18         4.1803   -4.8041   -2.9804 H         1 UNNAMED     0.0000 
     48 H19         2.7304   -3.5264   -1.4286 H         1 UNNAMED     0.0000 
     49 H20         7.2729   -0.1639   -5.6286 H         1 UNNAMED     0.0000 
     50 H21         6.8042   -0.0428   -3.9063 H         1 UNNAMED     0.0000 
     51 H22         7.3563   -1.6131   -4.5835 H         1 UNNAMED     0.0000 
@<TRIPOS>BOND
     1    1    2 ar   
     2    1    6 ar   
     3    1   29 1    
     4    2    3 ar   
     5    2   30 1    
     6    3    4 ar   
     7    3   31 1    
     8    4    5 ar   
     9    4    7 ar   
    10    5    6 ar   
    11    5    9 ar   
    12    6   32 1    
    13    7    8 ar   
    14    8    9 ar   
    15    8   10 1    
    16    9   15 1    
    17   10   11 2    
    18   10   12 1    
    19   12   13 1    
    20   13   14 1    
    21   13   33 1    
    22   13   34 1    
    23   14   22 ar   
    24   14   26 ar   
    25   15   16 1    
    26   16   17 1    
    27   16   21 1    
    28   16   35 1    
    29   17   18 1    
    30   17   36 1    
    31   17   37 1    
    32   18   19 1    
    33   18   38 1    
    34   18   39 1    
    35   19   20 1    
    36   19   40 1    
    37   20   21 1    
    38   20   41 1    
    39   20   42 1    
    40   21   43 1    
    41   21   44 1    
    42   22   23 ar   
    43   22   45 1    
    44   23   24 ar   
    45   23   27 1    
    46   24   25 ar   
    47   24   46 1    
    48   25   26 ar   
    49   25   47 1    
    50   26   48 1    
    51   27   28 1    
    52   28   49 1    
    53   28   50 1    
    54   28   51 1    
@<TRIPOS>SUBSTRUCTURE
     1 UNNAMED     1 TEMP              0 ****  ****    0 ROOT 
@<TRIPOS>NORMAL
@<TRIPOS>FF_PBC
FORCE_FIELD_SETUP_FEATURE Force Field Setup information
v1.0  0 0.000000 0.000000 0.000000 0.000000 0.000000 0.000000 NONE 0 0 0 0 1 0 0 0 0 0 0 0 0
