#	Name:			1_12a
#	Creating user name:	Mariana
#	Creation time:		Wed Jan 11 13:44:33 2017

#	Modifying user name:	Mariana
#	Modification time:	Wed Jan 11 13:44:33 2017

@<TRIPOS>MOLECULE
1_12a
   47    50     1     1     0
SMALL
NO_CHARGES


@<TRIPOS>ATOM
      1 C          -5.7721   -2.5084    0.5827 C.ar      1 UNNAMED     0.0000 
      2 C1         -5.5791   -3.5529   -0.3319 C.ar      1 UNNAMED     0.0000 
      3 C2         -4.3452   -3.7261   -0.9699 C.ar      1 UNNAMED     0.0000 
      4 C3         -3.3211   -2.8253   -0.6745 C.ar      1 UNNAMED     0.0000 
      5 C4         -3.5152   -1.7775    0.2225 C.ar      1 UNNAMED     0.0000 
      6 C5         -4.7375   -1.6124    0.8765 C.ar      1 UNNAMED     0.0000 
      7 S          -1.7555   -2.9132   -1.3670 S.3       1 UNNAMED     0.0000 
      8 C6         -1.3126   -1.5212   -0.4601 C.ar      1 UNNAMED     0.0000 
      9 C7         -2.3512   -1.0108    0.3232 C.ar      1 UNNAMED     0.0000 
     10 C8          0.0770   -0.9311   -0.5293 C.2       1 UNNAMED     0.0000 
     11 O           0.3745    0.0296    0.1628 O.2       1 UNNAMED     0.0000 
     12 O1          0.9657   -1.4872   -1.3645 O.3       1 UNNAMED     0.0000 
     13 C9          2.2594   -0.8496   -1.3540 C.3       1 UNNAMED     0.0000 
     14 C10         3.1777   -1.6094   -2.3192 C.ar      1 UNNAMED     0.0000 
     15 O2         -2.2451    0.1320    1.1137 O.3       1 UNNAMED     0.0000 
     16 C11        -2.8265    1.3267    0.5576 C.3       1 UNNAMED     0.0000 
     17 C12        -2.1473    1.7663   -0.7636 C.3       1 UNNAMED     0.0000 
     18 C13        -2.9396    2.9665   -1.3535 C.3       1 UNNAMED     0.0000 
     19 N          -3.5419    3.7899   -0.2786 N.3       1 UNNAMED     0.0000 
     20 C14        -2.7346    3.8657    0.9559 C.3       1 UNNAMED     0.0000 
     21 C15        -2.6808    2.4579    1.6127 C.3       1 UNNAMED     0.0000 
     22 C16         3.9711   -0.9325   -3.2535 C.ar      1 UNNAMED     0.0000 
     23 C17         4.7956   -1.6466   -4.1282 C.ar      1 UNNAMED     0.0000 
     24 C18         4.8344   -3.0426   -4.0719 C.ar      1 UNNAMED     0.0000 
     25 C19         4.0477   -3.7229   -3.1385 C.ar      1 UNNAMED     0.0000 
     26 C20         3.2237   -3.0070   -2.2654 C.ar      1 UNNAMED     0.0000 
     27 H          -6.7353   -2.3927    1.0705 H         1 UNNAMED     0.0000 
     28 H1         -6.3949   -4.2361   -0.5480 H         1 UNNAMED     0.0000 
     29 H2         -4.1873   -4.5366   -1.6739 H         1 UNNAMED     0.0000 
     30 H3         -4.8802   -0.8128    1.5960 H         1 UNNAMED     0.0000 
     31 H4          2.1650    0.2060   -1.6575 H         1 UNNAMED     0.0000 
     32 H5          2.7175   -0.8966   -0.3526 H         1 UNNAMED     0.0000 
     33 H6         -3.8972    1.1599    0.3466 H         1 UNNAMED     0.0000 
     34 H7         -1.1092    2.0590   -0.5390 H         1 UNNAMED     0.0000 
     35 H8         -2.1173    0.9486   -1.5011 H         1 UNNAMED     0.0000 
     36 H9         -3.7808    2.5913   -1.9597 H         1 UNNAMED     0.0000 
     37 H10        -2.2797    3.5594   -2.0102 H         1 UNNAMED     0.0000 
     38 H11        -3.7933    4.7801   -0.6444 H         1 UNNAMED     0.0000 
     39 H12        -3.1644    4.5918    1.6668 H         1 UNNAMED     0.0000 
     40 H13        -1.7208    4.2138    0.6922 H         1 UNNAMED     0.0000 
     41 H14        -3.4896    2.3417    2.3535 H         1 UNNAMED     0.0000 
     42 H15        -1.7217    2.3512    2.1462 H         1 UNNAMED     0.0000 
     43 H16         3.9538    0.1513   -3.3069 H         1 UNNAMED     0.0000 
     44 H17         5.4070   -1.1167   -4.8525 H         1 UNNAMED     0.0000 
     45 H18         5.4742   -3.5971   -4.7517 H         1 UNNAMED     0.0000 
     46 H19         4.0768   -4.8073   -3.0918 H         1 UNNAMED     0.0000 
     47 H20         2.6165   -3.5419   -1.5417 H         1 UNNAMED     0.0000 
@<TRIPOS>BOND
     1    1    2 ar   
     2    1    6 ar   
     3    1   27 1    
     4    2    3 ar   
     5    2   28 1    
     6    3    4 ar   
     7    3   29 1    
     8    4    5 ar   
     9    4    7 ar   
    10    5    6 ar   
    11    5    9 ar   
    12    6   30 1    
    13    7    8 ar   
    14    8    9 ar   
    15    8   10 1    
    16    9   15 1    
    17   10   11 2    
    18   10   12 1    
    19   12   13 1    
    20   13   14 1    
    21   13   31 1    
    22   13   32 1    
    23   14   22 ar   
    24   14   26 ar   
    25   15   16 1    
    26   16   17 1    
    27   16   21 1    
    28   16   33 1    
    29   17   18 1    
    30   17   34 1    
    31   17   35 1    
    32   18   19 1    
    33   18   36 1    
    34   18   37 1    
    35   19   20 1    
    36   19   38 1    
    37   20   21 1    
    38   20   39 1    
    39   20   40 1    
    40   21   41 1    
    41   21   42 1    
    42   22   23 ar   
    43   22   43 1    
    44   23   24 ar   
    45   23   44 1    
    46   24   25 ar   
    47   24   45 1    
    48   25   26 ar   
    49   25   46 1    
    50   26   47 1    
@<TRIPOS>SUBSTRUCTURE
     1 UNNAMED     1 TEMP              0 ****  ****    0 ROOT 
@<TRIPOS>NORMAL
@<TRIPOS>FF_PBC
FORCE_FIELD_SETUP_FEATURE Force Field Setup information
v1.0  0 0.000000 0.000000 0.000000 0.000000 0.000000 0.000000 NONE 0 0 0 0 1 0 0 0 0 0 0 0 0
