#	Name:			1_14b
#	Creating user name:	Mariana
#	Creation time:		Wed Jan 11 13:45:19 2017

#	Modifying user name:	Mariana
#	Modification time:	Wed Jan 11 13:45:19 2017

@<TRIPOS>MOLECULE
1_14b
   52    55     1     1     0
SMALL
NO_CHARGES


@<TRIPOS>ATOM
      1 C          -5.7669   -2.5066    0.5924 C.ar      1 UNNAMED     0.0000 
      2 C1         -5.5983   -3.5491   -0.3276 C.ar      1 UNNAMED     0.0000 
      3 C2         -4.3712   -3.7352   -0.9735 C.ar      1 UNNAMED     0.0000 
      4 C3         -3.3296   -2.8497   -0.6912 C.ar      1 UNNAMED     0.0000 
      5 C4         -3.5031   -1.7866    0.2015 C.ar      1 UNNAMED     0.0000 
      6 C5         -4.7163   -1.6266    0.8759 C.ar      1 UNNAMED     0.0000 
      7 S          -1.7736   -2.9919   -1.4016 S.3       1 UNNAMED     0.0000 
      8 C6         -1.2877   -1.4979   -0.4169 C.ar      1 UNNAMED     0.0000 
      9 C7         -2.3608   -0.9829    0.3081 C.ar      1 UNNAMED     0.0000 
     10 C8          0.1068   -0.9146   -0.4030 C.2       1 UNNAMED     0.0000 
     11 O           0.8959   -1.3199   -1.2396 O.2       1 UNNAMED     0.0000 
     12 N           0.4411    0.0212    0.5139 N.am      1 UNNAMED     0.0000 
     13 C9          1.7574    0.6585    0.4989 C.3       1 UNNAMED     0.0000 
     14 H1         -6.7225   -2.3805    1.0926 H         1 UNNAMED     0.0000 
     15 O1         -2.2976    0.2046    1.0417 O.3       1 UNNAMED     0.0000 
     16 C11        -2.9917    1.3195    0.4393 C.3       1 UNNAMED     0.0000 
     17 C12        -2.3713    1.6621   -0.9454 C.3       1 UNNAMED     0.0000 
     18 C13        -2.5083    3.1716   -1.2546 C.3       1 UNNAMED     0.0000 
     19 N1         -1.7404    3.9519   -0.2569 N.3       1 UNNAMED     0.0000 
     20 C14        -1.6847    3.4051    1.1201 C.3       1 UNNAMED     0.0000 
     21 C15        -2.9316    2.5356    1.4067 C.3       1 UNNAMED     0.0000 
     22 H2         -6.4255   -4.2196   -0.5405 H         1 UNNAMED     0.0000 
     23 H3         -4.2305   -4.5488   -1.6778 H         1 UNNAMED     0.0000 
     24 H4         -4.8435   -0.8396    1.6120 H         1 UNNAMED     0.0000 
     25 H5         -0.2342    0.3265    1.1908 H         1 UNNAMED     0.0000 
     26 H6          2.5081    0.0790   -0.0622 H         1 UNNAMED     0.0000 
     27 H7          2.1304    0.7588    1.5307 H         1 UNNAMED     0.0000 
     28 H8         -4.0574    1.0659    0.3067 H         1 UNNAMED     0.0000 
     29 C29         1.5949    2.0317   -0.1662 C.ar      1 UNNAMED     0.0000 
     30 C30         1.2226    2.0952   -1.5136 C.ar      1 UNNAMED     0.0000 
     31 C31         0.9326    3.3260   -2.1170 C.ar      1 UNNAMED     0.0000 
     32 C32         1.0998    4.4995   -1.3775 C.ar      1 UNNAMED     0.0000 
     33 C33         1.5464    4.4503   -0.0544 C.ar      1 UNNAMED     0.0000 
     34 C34         1.7980    3.2163    0.5505 C.ar      1 UNNAMED     0.0000 
     35 O35         0.4747    3.4241   -3.4394 O.3       1 UNNAMED     0.0000 
     36 C36         0.1849    2.2592   -4.2297 C.3       1 UNNAMED     0.0000 
     37 H9         -2.8323    1.0499   -1.7382 H         1 UNNAMED     0.0000 
     38 H10        -1.2970    1.4379   -0.9317 H         1 UNNAMED     0.0000 
     39 H11        -3.5760    3.4488   -1.2531 H         1 UNNAMED     0.0000 
     40 H12        -2.0966    3.3920   -2.2532 H         1 UNNAMED     0.0000 
     41 H13        -2.0481    4.9921   -0.2633 H         1 UNNAMED     0.0000 
     42 H14        -1.6020    4.2124    1.8682 H         1 UNNAMED     0.0000 
     43 H15        -0.7873    2.7779    1.2129 H         1 UNNAMED     0.0000 
     44 H16        -2.9295    2.1779    2.4494 H         1 UNNAMED     0.0000 
     45 H17        -3.8151    3.1823    1.2738 H         1 UNNAMED     0.0000 
     46 H18         1.1595    1.1705   -2.0717 H         1 UNNAMED     0.0000 
     47 H19         0.8786    5.4554   -1.8402 H         1 UNNAMED     0.0000 
     48 H20         1.6940    5.3700    0.5032 H         1 UNNAMED     0.0000 
     49 H21         2.1440    3.1874    1.5786 H         1 UNNAMED     0.0000 
     50 H22        -0.2030    2.6020   -5.2001 H         1 UNNAMED     0.0000 
     51 H23        -0.5838    1.6345   -3.7491 H         1 UNNAMED     0.0000 
     52 H24         1.0949    1.6676   -4.4125 H         1 UNNAMED     0.0000 
@<TRIPOS>BOND
     1    1    2 ar   
     2    6    1 ar   
     3   13   29 1    
     4    3    2 ar   
     5   29   30 ar   
     6    4    3 ar   
     7   30   31 ar   
     8    5    4 ar   
     9    7    4 ar   
    10    5    6 ar   
    11    9    5 ar   
    12   31   32 ar   
    13    8    7 ar   
    14    8    9 ar   
    15   10    8 1    
    16    9   15 1    
    17   10   11 2    
    18   12   10 am   
    19   12   13 1    
    20   32   33 ar   
    21    1   14 1    
    22   33   34 ar   
    23   29   34 ar   
    24    2   22 1    
    25    3   23 1    
    26   15   16 1    
    27   16   17 1    
    28   16   21 1    
    29   31   35 1    
    30   17   18 1    
    31   35   36 1    
    32    6   24 1    
    33   18   19 1    
    34   12   25 1    
    35   13   26 1    
    36   19   20 1    
    37   13   27 1    
    38   21   20 1    
    39   16   28 1    
    40   17   37 1    
    41   17   38 1    
    42   18   39 1    
    43   18   40 1    
    44   19   41 1    
    45   20   42 1    
    46   20   43 1    
    47   21   44 1    
    48   21   45 1    
    49   30   46 1    
    50   32   47 1    
    51   33   48 1    
    52   34   49 1    
    53   36   50 1    
    54   36   51 1    
    55   36   52 1    
@<TRIPOS>SUBSTRUCTURE
     1 UNNAMED     1 TEMP              0 ****  ****    0 ROOT 
@<TRIPOS>NORMAL
@<TRIPOS>FF_PBC
FORCE_FIELD_SETUP_FEATURE Force Field Setup information
v1.0  0 0.000000 0.000000 0.000000 0.000000 0.000000 0.000000 NONE 0 0 0 0 1 0 0 0 0 0 0 0 0
