#	Name:			1_14a
#	Creating user name:	Mariana
#	Creation time:		Wed Jan 11 13:44:49 2017

#	Modifying user name:	Mariana
#	Modification time:	Wed Jan 11 13:44:49 2017

@<TRIPOS>MOLECULE
1_14a
   48    51     1     1     0
SMALL
NO_CHARGES


@<TRIPOS>ATOM
      1 C          -5.7695   -2.5078    0.5857 C.ar      1 UNNAMED     0.0000 
      2 C1         -5.5799   -3.5508   -0.3307 C.ar      1 UNNAMED     0.0000 
      3 C2         -4.3473   -3.7251   -0.9705 C.ar      1 UNNAMED     0.0000 
      4 C3         -3.3166   -2.8290   -0.6810 C.ar      1 UNNAMED     0.0000 
      5 C4         -3.5121   -1.7785    0.2177 C.ar      1 UNNAMED     0.0000 
      6 C5         -4.7320   -1.6148    0.8770 C.ar      1 UNNAMED     0.0000 
      7 S          -1.8071   -2.9357   -1.3641 S.3       1 UNNAMED     0.0000 
      8 C6         -1.3208   -1.5265   -0.4499 C.ar      1 UNNAMED     0.0000 
      9 C7         -2.3557   -1.0020    0.3204 C.ar      1 UNNAMED     0.0000 
     10 C8          0.0652   -0.9240   -0.4813 C.2       1 UNNAMED     0.0000 
     11 O           0.8371   -1.3139   -1.3411 O.2       1 UNNAMED     0.0000 
     12 N           0.4102    0.0175    0.4256 N.am      1 UNNAMED     0.0000 
     13 C9          1.7067    0.6863    0.3585 C.3       1 UNNAMED     0.0000 
     14 C14         1.4701    2.0155   -0.3679 C.ar      1 UNNAMED     0.0000 
     15 O1         -2.2403    0.1606    1.0837 O.3       1 UNNAMED     0.0000 
     16 C11        -2.8577    1.3314    0.5102 C.3       1 UNNAMED     0.0000 
     17 C12        -2.2575    1.7113   -0.8672 C.3       1 UNNAMED     0.0000 
     18 C13        -3.0544    2.9061   -1.4639 C.3       1 UNNAMED     0.0000 
     19 N1         -3.5438    3.8294   -0.4104 N.3       1 UNNAMED     0.0000 
     20 C14        -2.6798    3.8871    0.7848 C.3       1 UNNAMED     0.0000 
     21 C15        -2.6580    2.5093    1.5054 C.3       1 UNNAMED     0.0000 
     22 C22         1.4090    2.0412   -1.7657 C.ar      1 UNNAMED     0.0000 
     23 C23         1.1527    3.2387   -2.4394 C.ar      1 UNNAMED     0.0000 
     24 C24         0.9700    4.4214   -1.7177 C.ar      1 UNNAMED     0.0000 
     25 C25         1.0523    4.4050   -0.3228 C.ar      1 UNNAMED     0.0000 
     26 C26         1.2975    3.2045    0.3502 C.ar      1 UNNAMED     0.0000 
     27 H1         -6.7312   -2.3912    1.0762 H         1 UNNAMED     0.0000 
     28 H2         -6.3973   -4.2323   -0.5464 H         1 UNNAMED     0.0000 
     29 H3         -4.1959   -4.5370   -1.6748 H         1 UNNAMED     0.0000 
     30 H4         -4.8716   -0.8181    1.6002 H         1 UNNAMED     0.0000 
     31 H5         -0.2466    0.3159    1.1233 H         1 UNNAMED     0.0000 
     32 H6          2.4647    0.0947   -0.1801 H         1 UNNAMED     0.0000 
     33 H7          2.0977    0.8612    1.3737 H         1 UNNAMED     0.0000 
     34 H8         -3.9360    1.1490    0.3624 H         1 UNNAMED     0.0000 
     35 H9         -2.2796    0.8663   -1.5737 H         1 UNNAMED     0.0000 
     36 H10        -1.2059    1.9916   -0.7139 H         1 UNNAMED     0.0000 
     37 H11        -3.9101    2.5286   -2.0509 H         1 UNNAMED     0.0000 
     38 H12        -2.4064    3.4714   -2.1538 H         1 UNNAMED     0.0000 
     39 H13        -4.5658    3.6028   -0.1248 H         1 UNNAMED     0.0000 
     40 H14        -3.0236    4.6792    1.4708 H         1 UNNAMED     0.0000 
     41 H15        -1.6684    4.1664    0.4470 H         1 UNNAMED     0.0000 
     42 H16        -1.6916    2.4055    2.0260 H         1 UNNAMED     0.0000 
     43 H17        -3.4537    2.4586    2.2671 H         1 UNNAMED     0.0000 
     44 H18         1.5548    1.1275   -2.3334 H         1 UNNAMED     0.0000 
     45 H19         1.0952    3.2500   -3.5236 H         1 UNNAMED     0.0000 
     46 H20         0.7650    5.3510   -2.2397 H         1 UNNAMED     0.0000 
     47 H21         0.9238    5.3257    0.2383 H         1 UNNAMED     0.0000 
     48 H22         1.3481    3.2025    1.4342 H         1 UNNAMED     0.0000 
@<TRIPOS>BOND
     1    1    2 ar   
     2    6    1 ar   
     3   13   14 1    
     4    3    2 ar   
     5   14   22 ar   
     6    4    3 ar   
     7   22   23 ar   
     8    5    4 ar   
     9    7    4 ar   
    10    5    6 ar   
    11    9    5 ar   
    12   23   24 ar   
    13    8    7 ar   
    14    8    9 ar   
    15   10    8 1    
    16    9   15 1    
    17   10   11 2    
    18   12   10 am   
    19   12   13 1    
    20   24   25 ar   
    21   25   26 ar   
    22   14   26 ar   
    23    1   27 1    
    24    2   28 1    
    25    3   29 1    
    26   15   16 1    
    27   16   17 1    
    28   16   21 1    
    29    6   30 1    
    30   17   18 1    
    31   12   31 1    
    32   13   32 1    
    33   18   19 1    
    34   13   33 1    
    35   16   34 1    
    36   19   20 1    
    37   17   35 1    
    38   21   20 1    
    39   17   36 1    
    40   18   37 1    
    41   18   38 1    
    42   19   39 1    
    43   20   40 1    
    44   20   41 1    
    45   21   42 1    
    46   21   43 1    
    47   22   44 1    
    48   23   45 1    
    49   24   46 1    
    50   25   47 1    
    51   26   48 1    
@<TRIPOS>SUBSTRUCTURE
     1 UNNAMED     1 TEMP              0 ****  ****    0 ROOT 
@<TRIPOS>NORMAL
@<TRIPOS>FF_PBC
FORCE_FIELD_SETUP_FEATURE Force Field Setup information
v1.0  0 0.000000 0.000000 0.000000 0.000000 0.000000 0.000000 NONE 0 0 0 0 1 0 0 0 0 0 0 0 0
