#	Name:			2_04a
#	Creating user name:	Mariana
#	Creation time:		Wed Jan 11 13:45:33 2017

#	Modifying user name:	Mariana
#	Modification time:	Wed Jan 11 13:45:33 2017

@<TRIPOS>MOLECULE
2_04a
   50    53     1     1     0
SMALL
NO_CHARGES


@<TRIPOS>ATOM
      1 C          -5.7708   -2.5120    0.5850 C.ar      1 UNNAMED     0.0000 
      2 C1         -5.5757   -3.5514   -0.3348 C.ar      1 UNNAMED     0.0000 
      3 C2         -4.3405   -3.7207   -0.9711 C.ar      1 UNNAMED     0.0000 
      4 C3         -3.3165   -2.8200   -0.6739 C.ar      1 UNNAMED     0.0000 
      5 C4         -3.5170   -1.7721    0.2227 C.ar      1 UNNAMED     0.0000 
      6 C5         -4.7372   -1.6162    0.8833 C.ar      1 UNNAMED     0.0000 
      7 S          -1.7842   -2.9125   -1.3496 S.3       1 UNNAMED     0.0000 
      8 C6         -1.3204   -1.5412   -0.4536 C.ar      1 UNNAMED     0.0000 
      9 C7         -2.3559   -1.0010    0.3110 C.ar      1 UNNAMED     0.0000 
     10 C8          0.0824   -0.9809   -0.4982 C.2       1 UNNAMED     0.0000 
     11 O           0.4110   -0.1081    0.2897 O.2       1 UNNAMED     0.0000 
     12 O1          0.9392   -1.4667   -1.4083 O.3       1 UNNAMED     0.0000 
     13 C9          2.2091   -0.7840   -1.4611 C.3       1 UNNAMED     0.0000 
     14 H1         -6.7342   -2.4004    1.0733 H         1 UNNAMED     0.0000 
     15 O2         -2.2451    0.1697    1.0599 O.3       1 UNNAMED     0.0000 
     16 C11        -2.8880    1.3297    0.4961 C.3       1 UNNAMED     0.0000 
     17 C12        -2.3627    1.6154   -0.9411 C.3       1 UNNAMED     0.0000 
     18 C13        -2.4458    3.1274   -1.2574 C.3       1 UNNAMED     0.0000 
     19 N          -1.5485    3.8751   -0.3447 N.3       1 UNNAMED     0.0000 
     20 C14        -1.3541    3.2982    1.0083 C.3       1 UNNAMED     0.0000 
     21 C15        -2.6292    2.5359    1.4424 C.3       1 UNNAMED     0.0000 
     22 H2         -6.3908   -4.2339   -0.5557 H         1 UNNAMED     0.0000 
     23 H3         -4.1820   -4.5302   -1.6765 H         1 UNNAMED     0.0000 
     24 H4         -4.8803   -0.8262    1.6127 H         1 UNNAMED     0.0000 
     25 H5          2.8482   -1.3790   -2.1327 H         1 UNNAMED     0.0000 
     26 H6          2.7023   -0.7523   -0.4746 H         1 UNNAMED     0.0000 
     27 H7         -3.9772    1.1578    0.4615 H         1 UNNAMED     0.0000 
     28 C28         2.0715    0.6370   -2.0673 C.3       1 UNNAMED     0.0000 
     29 C29         3.4647    1.2630   -2.2191 C.ar      1 UNNAMED     0.0000 
     30 C30         4.1703    1.1465   -3.4222 C.ar      1 UNNAMED     0.0000 
     31 C31         5.4356    1.7255   -3.5568 C.ar      1 UNNAMED     0.0000 
     32 C32         6.0045    2.4211   -2.4864 C.ar      1 UNNAMED     0.0000 
     33 C33         5.3065    2.5349   -1.2810 C.ar      1 UNNAMED     0.0000 
     34 C34         4.0412    1.9554   -1.1481 C.ar      1 UNNAMED     0.0000 
     35 H8         -2.9265    1.0225   -1.6803 H         1 UNNAMED     0.0000 
     36 H9         -1.3026    1.3338   -1.0219 H         1 UNNAMED     0.0000 
     37 H10        -3.4937    3.4601   -1.1632 H         1 UNNAMED     0.0000 
     38 H11        -2.1160    3.3145   -2.2925 H         1 UNNAMED     0.0000 
     39 H12        -1.8392    4.9192   -0.2935 H         1 UNNAMED     0.0000 
     40 H13        -1.1130    4.0847    1.7444 H         1 UNNAMED     0.0000 
     41 H14        -0.5022    2.5993    0.9808 H         1 UNNAMED     0.0000 
     42 H15        -2.5396    2.1810    2.4823 H         1 UNNAMED     0.0000 
     43 H16        -3.4686    3.2500    1.4008 H         1 UNNAMED     0.0000 
     44 H17         1.4531    1.2897   -1.4330 H         1 UNNAMED     0.0000 
     45 H18         1.5732    0.5651   -3.0470 H         1 UNNAMED     0.0000 
     46 H19         3.7398    0.6045   -4.2581 H         1 UNNAMED     0.0000 
     47 H20         5.9774    1.6349   -4.4935 H         1 UNNAMED     0.0000 
     48 H21         6.9867    2.8720   -2.5909 H         1 UNNAMED     0.0000 
     49 H22         5.7473    3.0734   -0.4475 H         1 UNNAMED     0.0000 
     50 H23         3.5079    2.0449   -0.2067 H         1 UNNAMED     0.0000 
@<TRIPOS>BOND
     1    1    2 ar   
     2    6    1 ar   
     3   13   28 1    
     4    3    2 ar   
     5   28   29 1    
     6    4    3 ar   
     7   29   30 ar   
     8    5    4 ar   
     9    7    4 ar   
    10    5    6 ar   
    11    9    5 ar   
    12   30   31 ar   
    13    8    7 ar   
    14    8    9 ar   
    15   10    8 1    
    16    9   15 1    
    17   10   11 2    
    18   12   10 1    
    19   12   13 1    
    20    1   14 1    
    21   31   32 ar   
    22   32   33 ar   
    23    2   22 1    
    24   33   34 ar   
    25   29   34 ar   
    26   15   16 1    
    27   16   17 1    
    28   16   21 1    
    29    3   23 1    
    30   17   18 1    
    31    6   24 1    
    32   13   25 1    
    33   18   19 1    
    34   13   26 1    
    35   16   27 1    
    36   19   20 1    
    37   17   35 1    
    38   20   21 1    
    39   17   36 1    
    40   18   37 1    
    41   18   38 1    
    42   19   39 1    
    43   20   40 1    
    44   20   41 1    
    45   21   42 1    
    46   21   43 1    
    47   28   44 1    
    48   28   45 1    
    49   30   46 1    
    50   31   47 1    
    51   32   48 1    
    52   33   49 1    
    53   34   50 1    
@<TRIPOS>SUBSTRUCTURE
     1 UNNAMED     1 TEMP              0 ****  ****    0 ROOT 
@<TRIPOS>NORMAL
@<TRIPOS>FF_PBC
FORCE_FIELD_SETUP_FEATURE Force Field Setup information
v1.0  0 0.000000 0.000000 0.000000 0.000000 0.000000 0.000000 NONE 0 0 0 0 1 0 0 0 0 0 0 0 0
