#	Name:			2_04d
#	Creating user name:	Mariana
#	Creation time:		Wed Jan 11 13:46:22 2017

#	Modifying user name:	Mariana
#	Modification time:	Wed Jan 11 13:46:22 2017

@<TRIPOS>MOLECULE
2_04d
   53    56     1     1     0
SMALL
NO_CHARGES


@<TRIPOS>ATOM
      1 C          -5.7708   -2.5088    0.5815 C.ar      1 UNNAMED     0.0000 
      2 C1         -5.5707   -3.5511   -0.3339 C.ar      1 UNNAMED     0.0000 
      3 C2         -4.3344   -3.7198   -0.9687 C.ar      1 UNNAMED     0.0000 
      4 C3         -3.3102   -2.8183   -0.6728 C.ar      1 UNNAMED     0.0000 
      5 C4         -3.5163   -1.7737    0.2264 C.ar      1 UNNAMED     0.0000 
      6 C5         -4.7397   -1.6101    0.8784 C.ar      1 UNNAMED     0.0000 
      7 S          -1.8202   -2.9076   -1.3363 S.3       1 UNNAMED     0.0000 
      8 C6         -1.3385   -1.5430   -0.4686 C.ar      1 UNNAMED     0.0000 
      9 C7         -2.3532   -1.0099    0.3264 C.ar      1 UNNAMED     0.0000 
     10 C8          0.0598   -0.9782   -0.5664 C.2       1 UNNAMED     0.0000 
     11 O           0.3685   -0.0016    0.0976 O.2       1 UNNAMED     0.0000 
     12 O1          0.9288   -1.5699   -1.3998 O.3       1 UNNAMED     0.0000 
     13 C9          2.2657   -1.0287   -1.3664 C.3       1 UNNAMED     0.0000 
     14 O2         -2.2287    0.1323    1.1151 O.3       1 UNNAMED     0.0000 
     15 C15        -2.8095    1.3301    0.5657 C.3       1 UNNAMED     0.0000 
     16 C16        -2.1427    1.7647   -0.7634 C.3       1 UNNAMED     0.0000 
     17 C17        -2.9353    2.9682   -1.3457 C.3       1 UNNAMED     0.0000 
     18 N18        -3.5213    3.7957   -0.2648 N.3       1 UNNAMED     0.0000 
     19 C19        -2.6998    3.8687    0.9604 C.3       1 UNNAMED     0.0000 
     20 C20        -2.6450    2.4612    1.6178 C.3       1 UNNAMED     0.0000 
     21 H1         -6.7358   -2.3968    1.0667 H         1 UNNAMED     0.0000 
     22 H2         -6.3836   -4.2368   -0.5531 H         1 UNNAMED     0.0000 
     23 H3         -4.1765   -4.5305   -1.6730 H         1 UNNAMED     0.0000 
     24 H4         -4.8854   -0.8108    1.5977 H         1 UNNAMED     0.0000 
     25 H5          2.2697    0.0628   -1.5269 H         1 UNNAMED     0.0000 
     26 H6          2.7943   -1.4918   -2.2143 H         1 UNNAMED     0.0000 
     27 H7         -3.8835    1.1691    0.3675 H         1 UNNAMED     0.0000 
     28 H8         -2.1245    0.9458   -1.5001 H         1 UNNAMED     0.0000 
     29 C29         3.0100   -1.4167   -0.0595 C.3       1 UNNAMED     0.0000 
     30 C30         4.4863   -0.9428   -0.0845 C.3       1 UNNAMED     0.0000 
     31 C31         5.1784   -1.3573    1.2219 C.ar      1 UNNAMED     0.0000 
     32 C32         5.1377   -0.5147    2.3387 C.ar      1 UNNAMED     0.0000 
     33 C33         5.7773   -0.8835    3.5257 C.ar      1 UNNAMED     0.0000 
     34 C34         6.4574   -2.1019    3.6044 C.ar      1 UNNAMED     0.0000 
     35 C35         6.4934   -2.9512    2.4951 C.ar      1 UNNAMED     0.0000 
     36 C36         5.8530   -2.5805    1.3089 C.ar      1 UNNAMED     0.0000 
     37 H9         -1.1006    2.0523   -0.5504 H         1 UNNAMED     0.0000 
     38 H10        -3.7850    2.5966   -1.9420 H         1 UNNAMED     0.0000 
     39 H11        -2.2798    3.5571   -2.0104 H         1 UNNAMED     0.0000 
     40 H12        -3.7719    4.7868   -0.6288 H         1 UNNAMED     0.0000 
     41 H13        -3.1182    4.5974    1.6755 H         1 UNNAMED     0.0000 
     42 H14        -1.6875    4.2120    0.6851 H         1 UNNAMED     0.0000 
     43 H15        -3.4451    2.3497    2.3688 H         1 UNNAMED     0.0000 
     44 H16        -1.6799    2.3499    2.1395 H         1 UNNAMED     0.0000 
     45 H17         2.9798   -2.5130    0.0529 H         1 UNNAMED     0.0000 
     46 H18         2.5139   -0.9723    0.8173 H         1 UNNAMED     0.0000 
     47 H19         4.5286    0.1526   -0.1956 H         1 UNNAMED     0.0000 
     48 H20         5.0152   -1.3859   -0.9434 H         1 UNNAMED     0.0000 
     49 H21         4.6067    0.4307    2.2894 H         1 UNNAMED     0.0000 
     50 H22         5.7455   -0.2236    4.3874 H         1 UNNAMED     0.0000 
     51 H23         6.9562   -2.3883    4.5253 H         1 UNNAMED     0.0000 
     52 H24         7.0189   -3.8995    2.5550 H         1 UNNAMED     0.0000 
     53 H25         5.8817   -3.2501    0.4552 H         1 UNNAMED     0.0000 
@<TRIPOS>BOND
     1    1    2 ar   
     2    6    1 ar   
     3   14   15 1    
     4    3    2 ar   
     5   15   16 1    
     6    4    3 ar   
     7   16   17 1    
     8    5    4 ar   
     9    7    4 ar   
    10    5    6 ar   
    11    9    5 ar   
    12   17   18 1    
    13    8    7 ar   
    14    9    8 ar   
    15    8   10 1    
    16    9   14 1    
    17   10   11 2    
    18   10   12 1    
    19   12   13 1    
    20    1   21 1    
    21   18   19 1    
    22   19   20 1    
    23   15   20 1    
    24   13   29 1    
    25   29   30 1    
    26   30   31 1    
    27   31   32 ar   
    28   32   33 ar   
    29   33   34 ar   
    30   34   35 ar   
    31   35   36 ar   
    32   31   36 ar   
    33    2   22 1    
    34    3   23 1    
    35    6   24 1    
    36   13   25 1    
    37   13   26 1    
    38   15   27 1    
    39   16   28 1    
    40   16   37 1    
    41   17   38 1    
    42   17   39 1    
    43   18   40 1    
    44   19   41 1    
    45   19   42 1    
    46   20   43 1    
    47   20   44 1    
    48   29   45 1    
    49   29   46 1    
    50   30   47 1    
    51   30   48 1    
    52   32   49 1    
    53   33   50 1    
    54   34   51 1    
    55   35   52 1    
    56   36   53 1    
@<TRIPOS>SUBSTRUCTURE
     1 UNNAMED     1 TEMP              0 ****  ****    0 ROOT 
@<TRIPOS>NORMAL
@<TRIPOS>FF_PBC
FORCE_FIELD_SETUP_FEATURE Force Field Setup information
v1.0  0 0.000000 0.000000 0.000000 0.000000 0.000000 0.000000 NONE 0 0 0 0 1 0 0 0 0 0 0 0 0
