#	Name:			2_04b
#	Creating user name:	Mariana
#	Creation time:		Wed Jan 11 13:45:47 2017

#	Modifying user name:	Mariana
#	Modification time:	Wed Jan 11 13:45:47 2017

@<TRIPOS>MOLECULE
2_04b
   54    57     1     1     0
SMALL
NO_CHARGES


@<TRIPOS>ATOM
      1 C          -5.7688   -2.5065    0.5871 C.ar      1 UNNAMED     0.0000 
      2 C1         -5.5826   -3.5538   -0.3254 C.ar      1 UNNAMED     0.0000 
      3 C2         -4.3533   -3.7291   -0.9716 C.ar      1 UNNAMED     0.0000 
      4 C3         -3.3231   -2.8315   -0.6865 C.ar      1 UNNAMED     0.0000 
      5 C4         -3.5100   -1.7830    0.2143 C.ar      1 UNNAMED     0.0000 
      6 C5         -4.7304   -1.6116    0.8700 C.ar      1 UNNAMED     0.0000 
      7 S          -1.7884   -2.9289   -1.3895 S.3       1 UNNAMED     0.0000 
      8 C6         -1.3108   -1.5142   -0.4469 C.ar      1 UNNAMED     0.0000 
      9 C7         -2.3549   -1.0047    0.3276 C.ar      1 UNNAMED     0.0000 
     10 C8          0.0910   -0.9515   -0.4965 C.2       1 UNNAMED     0.0000 
     11 O           0.4166   -0.0560    0.2668 O.2       1 UNNAMED     0.0000 
     12 O1          0.9531   -1.4683   -1.3844 O.3       1 UNNAMED     0.0000 
     13 C9          2.2364   -0.8106   -1.4320 C.3       1 UNNAMED     0.0000 
     14 H1         -6.7284   -2.3873    1.0809 H         1 UNNAMED     0.0000 
     15 O2         -2.2692    0.1393    1.1204 O.3       1 UNNAMED     0.0000 
     16 C11        -2.2809    1.4027    0.4250 C.3       1 UNNAMED     0.0000 
     17 C12        -1.9431    2.4906    1.4823 C.3       1 UNNAMED     0.0000 
     18 C13        -2.5583    3.8525    1.0820 C.3       1 UNNAMED     0.0000 
     19 N          -4.0368    3.7480    1.0679 N.3       1 UNNAMED     0.0000 
     20 C14        -4.6025    2.4247    0.7087 C.3       1 UNNAMED     0.0000 
     21 C15        -3.6486    1.6895   -0.2629 C.3       1 UNNAMED     0.0000 
     22 H2         -6.4002   -4.2373   -0.5336 H         1 UNNAMED     0.0000 
     23 H3         -4.2037   -4.5411   -1.6758 H         1 UNNAMED     0.0000 
     24 H4         -4.8669   -0.8041    1.5815 H         1 UNNAMED     0.0000 
     25 H5          2.8772   -1.4367   -2.0731 H         1 UNNAMED     0.0000 
     26 H6          2.7107   -0.7597   -0.4371 H         1 UNNAMED     0.0000 
     27 H7         -1.5010    1.4098   -0.3561 H         1 UNNAMED     0.0000 
     28 H8         -0.8503    2.5688    1.6087 H         1 UNNAMED     0.0000 
     29 H9         -2.3723    2.2081    2.4575 H         1 UNNAMED     0.0000 
     30 C30         2.1390    0.5937   -2.0821 C.3       1 UNNAMED     0.0000 
     31 C31         3.5459    1.1946   -2.2063 C.ar      1 UNNAMED     0.0000 
     32 C32         4.0928    1.9233   -1.1440 C.ar      1 UNNAMED     0.0000 
     33 C33         5.3730    2.4730   -1.2497 C.ar      1 UNNAMED     0.0000 
     34 C34         6.1109    2.3053   -2.4236 C.ar      1 UNNAMED     0.0000 
     35 C35         5.5720    1.5759   -3.4871 C.ar      1 UNNAMED     0.0000 
     36 C36         4.2943    1.0192   -3.3759 C.ar      1 UNNAMED     0.0000 
     37 O37         5.9158    3.1895   -0.1835 O.3       1 UNNAMED     0.0000 
     38 C38         6.5390    2.3598    0.8094 C.3       1 UNNAMED     0.0000 
     39 H10        -2.1609    4.1528    0.0975 H         1 UNNAMED     0.0000 
     40 H11        -2.2750    4.6233    1.8175 H         1 UNNAMED     0.0000 
     41 H12        -4.4701    4.5419    0.4683 H         1 UNNAMED     0.0000 
     42 H13        -5.6021    2.5308    0.2524 H         1 UNNAMED     0.0000 
     43 H14        -4.7205    1.8298    1.6280 H         1 UNNAMED     0.0000 
     44 H15        -4.1077    0.7605   -0.6327 H         1 UNNAMED     0.0000 
     45 H16        -3.5045    2.3522   -1.1325 H         1 UNNAMED     0.0000 
     46 H17         1.5092    1.2709   -1.4861 H         1 UNNAMED     0.0000 
     47 H18         1.6721    0.5009   -3.0754 H         1 UNNAMED     0.0000 
     48 H19         3.5283    2.0670   -0.2289 H         1 UNNAMED     0.0000 
     49 H20         7.1006    2.7424   -2.5036 H         1 UNNAMED     0.0000 
     50 H21         6.1460    1.4420   -4.3989 H         1 UNNAMED     0.0000 
     51 H22         3.8873    0.4481   -4.2044 H         1 UNNAMED     0.0000 
     52 H23         6.9390    3.0101    1.6012 H         1 UNNAMED     0.0000 
     53 H24         7.3695    1.7852    0.3702 H         1 UNNAMED     0.0000 
     54 H25         5.8110    1.6653    1.2570 H         1 UNNAMED     0.0000 
@<TRIPOS>BOND
     1    1    2 ar   
     2    6    1 ar   
     3   13   30 1    
     4    3    2 ar   
     5   30   31 1    
     6    4    3 ar   
     7   31   32 ar   
     8    5    4 ar   
     9    7    4 ar   
    10    5    6 ar   
    11    9    5 ar   
    12   32   33 ar   
    13    8    7 ar   
    14    8    9 ar   
    15   10    8 1    
    16    9   15 1    
    17   10   11 2    
    18   12   10 1    
    19   12   13 1    
    20    1   14 1    
    21   33   34 ar   
    22   34   35 ar   
    23    2   22 1    
    24   35   36 ar   
    25   31   36 ar   
    26   15   16 1    
    27   16   17 1    
    28   16   21 1    
    29   33   37 1    
    30   17   18 1    
    31   37   38 1    
    32    3   23 1    
    33   18   19 1    
    34    6   24 1    
    35   13   25 1    
    36   19   20 1    
    37   13   26 1    
    38   21   20 1    
    39   16   27 1    
    40   17   28 1    
    41   17   29 1    
    42   18   39 1    
    43   18   40 1    
    44   19   41 1    
    45   20   42 1    
    46   20   43 1    
    47   21   44 1    
    48   21   45 1    
    49   30   46 1    
    50   30   47 1    
    51   32   48 1    
    52   34   49 1    
    53   35   50 1    
    54   36   51 1    
    55   38   52 1    
    56   38   53 1    
    57   38   54 1    
@<TRIPOS>SUBSTRUCTURE
     1 UNNAMED     1 TEMP              0 ****  ****    0 ROOT 
@<TRIPOS>NORMAL
@<TRIPOS>FF_PBC
FORCE_FIELD_SETUP_FEATURE Force Field Setup information
v1.0  0 0.000000 0.000000 0.000000 0.000000 0.000000 0.000000 NONE 0 0 0 0 1 0 0 0 0 0 0 0 0
