#	Name:			2_04c
#	Creating user name:	Mariana
#	Creation time:		Wed Jan 11 13:46:02 2017

#	Modifying user name:	Mariana
#	Modification time:	Wed Jan 11 13:46:02 2017

@<TRIPOS>MOLECULE
2_04c
   58    61     1     1     0
SMALL
NO_CHARGES


@<TRIPOS>ATOM
      1 C          -5.7677   -2.5080    0.5895 C.ar      1 UNNAMED     0.0000 
      2 C1         -5.5860   -3.5517   -0.3277 C.ar      1 UNNAMED     0.0000 
      3 C2         -4.3567   -3.7291   -0.9730 C.ar      1 UNNAMED     0.0000 
      4 C3         -3.3239   -2.8347   -0.6865 C.ar      1 UNNAMED     0.0000 
      5 C4         -3.5092   -1.7819    0.2106 C.ar      1 UNNAMED     0.0000 
      6 C5         -4.7261   -1.6177    0.8752 C.ar      1 UNNAMED     0.0000 
      7 S          -1.7865   -2.9442   -1.3843 S.3       1 UNNAMED     0.0000 
      8 C6         -1.3051   -1.5170   -0.4358 C.ar      1 UNNAMED     0.0000 
      9 C7         -2.3591   -0.9944    0.3164 C.ar      1 UNNAMED     0.0000 
     10 C8          0.1059   -0.9761   -0.4679 C.2       1 UNNAMED     0.0000 
     11 O           0.4411   -0.0795    0.2903 O.2       1 UNNAMED     0.0000 
     12 O1          0.9721   -1.5102   -1.3414 O.3       1 UNNAMED     0.0000 
     13 C9          2.2909   -0.9271   -1.2953 C.3       1 UNNAMED     0.0000 
     14 H1         -6.7263   -2.3884    1.0854 H         1 UNNAMED     0.0000 
     15 O2         -2.2911    0.1722    1.0776 O.3       1 UNNAMED     0.0000 
     16 C11        -2.2847    1.3924    0.3115 C.3       1 UNNAMED     0.0000 
     17 C12        -2.1139    2.5859    1.2781 C.3       1 UNNAMED     0.0000 
     18 C13        -1.9160    3.8870    0.4488 C.3       1 UNNAMED     0.0000 
     19 N          -2.6880    3.8594   -0.8190 N.3       1 UNNAMED     0.0000 
     20 C14        -3.9279    3.0602   -0.7546 C.3       1 UNNAMED     0.0000 
     21 C15        -3.5991    1.5607   -0.5030 C.3       1 UNNAMED     0.0000 
     22 H2         -6.4064   -4.2306   -0.5397 H         1 UNNAMED     0.0000 
     23 H3         -4.2088   -4.5408   -1.6780 H         1 UNNAMED     0.0000 
     24 H4         -4.8586   -0.8201    1.5990 H         1 UNNAMED     0.0000 
     25 H5          2.7328   -1.0685   -0.2941 H         1 UNNAMED     0.0000 
     26 H6          2.2349    0.1491   -1.5323 H         1 UNNAMED     0.0000 
     27 H7         -1.4192    1.4081   -0.3723 H         1 UNNAMED     0.0000 
     28 H8         -1.2497    2.4198    1.9428 H         1 UNNAMED     0.0000 
     29 H9         -3.0155    2.6496    1.9088 H         1 UNNAMED     0.0000 
     30 H10        -0.8432    4.0258    0.2266 H         1 UNNAMED     0.0000 
     31 H11        -2.2433    4.7555    1.0429 H         1 UNNAMED     0.0000 
     32 C32         3.1633   -1.6480   -2.3525 C.3       1 UNNAMED     0.0000 
     33 C33         4.6286   -1.1844   -2.4493 C.ar      1 UNNAMED     0.0000 
     34 C34         5.4610   -1.8397   -3.3646 C.ar      1 UNNAMED     0.0000 
     35 C35         6.8045   -1.4874   -3.5199 C.ar      1 UNNAMED     0.0000 
     36 C36         7.3312   -0.4535   -2.7358 C.ar      1 UNNAMED     0.0000 
     37 C37         6.5145    0.2056   -1.8147 C.ar      1 UNNAMED     0.0000 
     38 C38         5.1703   -0.1495   -1.6765 C.ar      1 UNNAMED     0.0000 
     39 O39         7.5770   -2.1863   -4.4590 O.3       1 UNNAMED     0.0000 
     40 C40         8.9595   -1.8722   -4.6918 C.3       1 UNNAMED     0.0000 
     41 O41         7.0467    1.2268   -1.0279 O.3       1 UNNAMED     0.0000 
     42 C42         7.4581    0.7938    0.2784 C.3       1 UNNAMED     0.0000 
     43 H12        -2.0739    3.5333   -1.6520 H         1 UNNAMED     0.0000 
     44 H13        -4.5113    3.1793   -1.6829 H         1 UNNAMED     0.0000 
     45 H14        -4.5386    3.4683    0.0683 H         1 UNNAMED     0.0000 
     46 H15        -4.4442    1.1119    0.0412 H         1 UNNAMED     0.0000 
     47 H16        -3.4905    1.0214   -1.4588 H         1 UNNAMED     0.0000 
     48 H17         2.6953   -1.5094   -3.3402 H         1 UNNAMED     0.0000 
     49 H18         3.1617   -2.7250   -2.1195 H         1 UNNAMED     0.0000 
     50 H19         5.0627   -2.6435   -3.9748 H         1 UNNAMED     0.0000 
     51 H20         8.3639   -0.1398   -2.8163 H         1 UNNAMED     0.0000 
     52 H21         4.5722    0.3988   -0.9601 H         1 UNNAMED     0.0000 
     53 H22         9.5594   -2.0286   -3.7822 H         1 UNNAMED     0.0000 
     54 H23         9.0746   -0.8378   -5.0505 H         1 UNNAMED     0.0000 
     55 H24         9.3308   -2.5526   -5.4722 H         1 UNNAMED     0.0000 
     56 H25         7.8662    1.6617    0.8171 H         1 UNNAMED     0.0000 
     57 H26         8.2415    0.0234    0.2037 H         1 UNNAMED     0.0000 
     58 H27         6.6057    0.3932    0.8490 H         1 UNNAMED     0.0000 
@<TRIPOS>BOND
     1    1    2 ar   
     2    6    1 ar   
     3   13   32 1    
     4    3    2 ar   
     5   32   33 1    
     6    4    3 ar   
     7   33   34 ar   
     8    5    4 ar   
     9    7    4 ar   
    10    5    6 ar   
    11    9    5 ar   
    12   34   35 ar   
    13    8    7 ar   
    14    8    9 ar   
    15   10    8 1    
    16    9   15 1    
    17   10   11 2    
    18   12   10 1    
    19   12   13 1    
    20    1   14 1    
    21   35   36 ar   
    22   36   37 ar   
    23    2   22 1    
    24   37   38 ar   
    25   33   38 ar   
    26   15   16 1    
    27   16   17 1    
    28   16   21 1    
    29   35   39 1    
    30   17   18 1    
    31   39   40 1    
    32   37   41 1    
    33   18   19 1    
    34   41   42 1    
    35    3   23 1    
    36   19   20 1    
    37    6   24 1    
    38   21   20 1    
    39   13   25 1    
    40   13   26 1    
    41   16   27 1    
    42   17   28 1    
    43   17   29 1    
    44   18   30 1    
    45   18   31 1    
    46   19   43 1    
    47   20   44 1    
    48   20   45 1    
    49   21   46 1    
    50   21   47 1    
    51   32   48 1    
    52   32   49 1    
    53   34   50 1    
    54   36   51 1    
    55   38   52 1    
    56   40   53 1    
    57   40   54 1    
    58   40   55 1    
    59   42   56 1    
    60   42   57 1    
    61   42   58 1    
@<TRIPOS>SUBSTRUCTURE
     1 UNNAMED     1 TEMP              0 ****  ****    0 ROOT 
@<TRIPOS>NORMAL
@<TRIPOS>FF_PBC
FORCE_FIELD_SETUP_FEATURE Force Field Setup information
v1.0  0 0.000000 0.000000 0.000000 0.000000 0.000000 0.000000 NONE 0 0 0 0 1 0 0 0 0 0 0 0 0
