#	Name:			2_04e
#	Creating user name:	Mariana
#	Creation time:		Wed Jan 11 13:46:44 2017

#	Modifying user name:	Mariana
#	Modification time:	Wed Jan 11 13:46:44 2017

@<TRIPOS>MOLECULE
2_04e
   51    54     1     1     0
SMALL
NO_CHARGES


@<TRIPOS>ATOM
      1 C          -5.7722   -2.5084    0.5827 C.ar      1 UNNAMED     0.0000 
      2 C1         -5.5793   -3.5528   -0.3321 C.ar      1 UNNAMED     0.0000 
      3 C2         -4.3453   -3.7262   -0.9698 C.ar      1 UNNAMED     0.0000 
      4 C3         -3.3210   -2.8255   -0.6742 C.ar      1 UNNAMED     0.0000 
      5 C4         -3.5151   -1.7775    0.2225 C.ar      1 UNNAMED     0.0000 
      6 C5         -4.7374   -1.6127    0.8768 C.ar      1 UNNAMED     0.0000 
      7 S          -1.7554   -2.9142   -1.3661 S.3       1 UNNAMED     0.0000 
      8 C6         -1.3123   -1.5210   -0.4601 C.ar      1 UNNAMED     0.0000 
      9 C7         -2.3512   -1.0106    0.3229 C.ar      1 UNNAMED     0.0000 
     10 C8          0.0770   -0.9303   -0.5287 C.2       1 UNNAMED     0.0000 
     11 O           0.3607    0.0435    0.1501 O.2       1 UNNAMED     0.0000 
     12 O1          0.9710   -1.4970   -1.3516 O.3       1 UNNAMED     0.0000 
     13 C9          2.2886   -0.9077   -1.3118 C.3       1 UNNAMED     0.0000 
     14 O2         -2.2452    0.1322    1.1136 O.3       1 UNNAMED     0.0000 
     15 C10        -2.8309    1.3262    0.5604 C.3       1 UNNAMED     0.0000 
     16 C11        -2.1568    1.7694   -0.7621 C.3       1 UNNAMED     0.0000 
     17 C12        -2.9552    2.9669   -1.3488 C.3       1 UNNAMED     0.0000 
     18 N          -3.5572    3.7873   -0.2713 N.3       1 UNNAMED     0.0000 
     19 C13        -2.7466    3.8650    0.9609 C.3       1 UNNAMED     0.0000 
     20 C14        -2.6854    2.4567    1.6162 C.3       1 UNNAMED     0.0000 
     21 C15         3.0391   -1.2208    0.0067 C.3       1 UNNAMED     0.0000 
     22 O3          4.4011   -0.7794   -0.1299 O.3       1 UNNAMED     0.0000 
     23 C16         5.1858   -1.0267    0.9959 C.ar      1 UNNAMED     0.0000 
     24 C17         5.2005   -0.1125    2.0527 C.ar      1 UNNAMED     0.0000 
     25 C18         5.9778   -0.3669    3.1865 C.ar      1 UNNAMED     0.0000 
     26 C19         6.7445   -1.5340    3.2596 C.ar      1 UNNAMED     0.0000 
     27 C20         6.7359   -2.4450    2.1988 C.ar      1 UNNAMED     0.0000 
     28 C21         5.9570   -2.1896    1.0661 C.ar      1 UNNAMED     0.0000 
     29 H          -6.7354   -2.3925    1.0705 H         1 UNNAMED     0.0000 
     30 H1         -6.3953   -4.2357   -0.5485 H         1 UNNAMED     0.0000 
     31 H2         -4.1874   -4.5367   -1.6739 H         1 UNNAMED     0.0000 
     32 H3         -4.8800   -0.8135    1.5968 H         1 UNNAMED     0.0000 
     33 H4          2.8571   -1.3749   -2.1311 H         1 UNNAMED     0.0000 
     34 H5          2.2662    0.1787   -1.5005 H         1 UNNAMED     0.0000 
     35 H6         -3.9018    1.1571    0.3522 H         1 UNNAMED     0.0000 
     36 H7         -1.1193    2.0665   -0.5401 H         1 UNNAMED     0.0000 
     37 H8         -2.1250    0.9522   -1.5000 H         1 UNNAMED     0.0000 
     38 H9         -3.7969    2.5889   -1.9527 H         1 UNNAMED     0.0000 
     39 H10        -2.2996    3.5628   -2.0071 H         1 UNNAMED     0.0000 
     40 H11        -3.8132    4.7769   -0.6355 H         1 UNNAMED     0.0000 
     41 H12        -3.1771    4.5887    1.6737 H         1 UNNAMED     0.0000 
     42 H13        -1.7349    4.2172    0.6946 H         1 UNNAMED     0.0000 
     43 H14        -3.4911    2.3369    2.3598 H         1 UNNAMED     0.0000 
     44 H15        -1.7240    2.3527    2.1460 H         1 UNNAMED     0.0000 
     45 H16         2.5643   -0.7129    0.8606 H         1 UNNAMED     0.0000 
     46 H17         3.0088   -2.3087    0.1823 H         1 UNNAMED     0.0000 
     47 H18         4.6067    0.7933    1.9881 H         1 UNNAMED     0.0000 
     48 H19         5.9861    0.3414    4.0094 H         1 UNNAMED     0.0000 
     49 H20         7.3474   -1.7327    4.1406 H         1 UNNAMED     0.0000 
     50 H21         7.3333   -3.3500    2.2545 H         1 UNNAMED     0.0000 
     51 H22         5.9471   -2.8908    0.2385 H         1 UNNAMED     0.0000 
@<TRIPOS>BOND
     1    1    2 ar   
     2    1    6 ar   
     3    1   29 1    
     4    2    3 ar   
     5    2   30 1    
     6    3    4 ar   
     7    3   31 1    
     8    4    5 ar   
     9    4    7 ar   
    10    5    6 ar   
    11    5    9 ar   
    12    6   32 1    
    13    7    8 ar   
    14    8    9 ar   
    15    8   10 1    
    16    9   14 1    
    17   10   11 2    
    18   10   12 1    
    19   12   13 1    
    20   13   21 1    
    21   13   33 1    
    22   13   34 1    
    23   14   15 1    
    24   15   16 1    
    25   15   20 1    
    26   15   35 1    
    27   16   17 1    
    28   16   36 1    
    29   16   37 1    
    30   17   18 1    
    31   17   38 1    
    32   17   39 1    
    33   18   19 1    
    34   18   40 1    
    35   19   20 1    
    36   19   41 1    
    37   19   42 1    
    38   20   43 1    
    39   20   44 1    
    40   21   22 1    
    41   21   45 1    
    42   21   46 1    
    43   22   23 1    
    44   23   24 ar   
    45   23   28 ar   
    46   24   25 ar   
    47   24   47 1    
    48   25   26 ar   
    49   25   48 1    
    50   26   27 ar   
    51   26   49 1    
    52   27   28 ar   
    53   27   50 1    
    54   28   51 1    
@<TRIPOS>SUBSTRUCTURE
     1 UNNAMED     1 TEMP              0 ****  ****    0 ROOT 
@<TRIPOS>NORMAL
@<TRIPOS>FF_PBC
FORCE_FIELD_SETUP_FEATURE Force Field Setup information
v1.0  0 0.000000 0.000000 0.000000 0.000000 0.000000 0.000000 NONE 0 0 0 0 1 0 0 0 0 0 0 0 0
