#	Name:			2_06b
#	Creating user name:	Mariana
#	Creation time:		Wed Jan 11 13:47:17 2017

#	Modifying user name:	Mariana
#	Modification time:	Wed Jan 11 13:47:17 2017

@<TRIPOS>MOLECULE
2_06b
   54    57     1     1     0
SMALL
NO_CHARGES


@<TRIPOS>ATOM
      1 C          -5.7719   -2.5118    0.5849 C.ar      1 UNNAMED     0.0000 
      2 C1         -5.5792   -3.5513   -0.3353 C.ar      1 UNNAMED     0.0000 
      3 C2         -4.3442   -3.7229   -0.9712 C.ar      1 UNNAMED     0.0000 
      4 C3         -3.3198   -2.8233   -0.6727 C.ar      1 UNNAMED     0.0000 
      5 C4         -3.5173   -1.7730    0.2221 C.ar      1 UNNAMED     0.0000 
      6 C5         -4.7370   -1.6178    0.8840 C.ar      1 UNNAMED     0.0000 
      7 S          -1.7532   -2.9188   -1.3578 S.3       1 UNNAMED     0.0000 
      8 C6         -1.3101   -1.5318   -0.4513 C.ar      1 UNNAMED     0.0000 
      9 C7         -2.3545   -1.0025    0.3081 C.ar      1 UNNAMED     0.0000 
     10 C8          0.0746   -0.9241   -0.4618 C.2       1 UNNAMED     0.0000 
     11 O           0.8856   -1.3558   -1.2637 O.2       1 UNNAMED     0.0000 
     12 N           0.3776    0.0726    0.4006 N.am      1 UNNAMED     0.0000 
     13 C9          1.6906    0.7134    0.3743 C.3       1 UNNAMED     0.0000 
     14 O1         -2.2340    0.1691    1.0583 O.3       1 UNNAMED     0.0000 
     15 C10        -2.9061    1.3198    0.5084 C.3       1 UNNAMED     0.0000 
     16 C11        -2.4005    1.6637   -0.9231 C.3       1 UNNAMED     0.0000 
     17 C12        -2.5942    3.1716   -1.2477 C.3       1 UNNAMED     0.0000 
     18 N1         -3.7503    3.6833   -0.4844 N.3       1 UNNAMED     0.0000 
     19 C13        -3.5519    3.7111    0.9839 C.3       1 UNNAMED     0.0000 
     20 C14        -2.6645    2.5232    1.4486 C.3       1 UNNAMED     0.0000 
     21 C15         1.5700    2.1874    0.8449 C.3       1 UNNAMED     0.0000 
     22 C16         2.9293    2.9301    0.7876 C.3       1 UNNAMED     0.0000 
     23 C17         2.7270    4.3791    1.2530 C.ar      1 UNNAMED     0.0000 
     24 C18         2.3267    5.3606    0.3391 C.ar      1 UNNAMED     0.0000 
     25 C19         2.1442    6.6823    0.7563 C.ar      1 UNNAMED     0.0000 
     26 C20         2.3591    7.0296    2.0928 C.ar      1 UNNAMED     0.0000 
     27 C21         2.7543    6.0524    3.0105 C.ar      1 UNNAMED     0.0000 
     28 C22         2.9354    4.7310    2.5914 C.ar      1 UNNAMED     0.0000 
     29 H          -6.7352   -2.3988    1.0733 H         1 UNNAMED     0.0000 
     30 H1         -6.3957   -4.2320   -0.5569 H         1 UNNAMED     0.0000 
     31 H2         -4.1852   -4.5321   -1.6766 H         1 UNNAMED     0.0000 
     32 H3         -4.8794   -0.8300    1.6158 H         1 UNNAMED     0.0000 
     33 H4         -0.2945    0.3633    1.0871 H         1 UNNAMED     0.0000 
     34 H5          2.3782    0.1579    1.0323 H         1 UNNAMED     0.0000 
     35 H6          2.1095    0.7103   -0.6460 H         1 UNNAMED     0.0000 
     36 H7         -3.9949    1.1433    0.4793 H         1 UNNAMED     0.0000 
     37 H8         -1.3315    1.4268   -1.0309 H         1 UNNAMED     0.0000 
     38 H9         -2.9545    1.0384   -1.6433 H         1 UNNAMED     0.0000 
     39 H10        -2.7464    3.3015   -2.3329 H         1 UNNAMED     0.0000 
     40 H11        -1.7000    3.7529   -0.9625 H         1 UNNAMED     0.0000 
     41 H12        -4.0630    4.6558   -0.8509 H         1 UNNAMED     0.0000 
     42 H13        -4.5549    3.6197    1.4324 H         1 UNNAMED     0.0000 
     43 H14        -3.1072    4.6619    1.3253 H         1 UNNAMED     0.0000 
     44 H15        -2.9005    2.2537    2.4913 H         1 UNNAMED     0.0000 
     45 H16        -1.5964    2.7902    1.4028 H         1 UNNAMED     0.0000 
     46 H17         0.8447    2.7073    0.1973 H         1 UNNAMED     0.0000 
     47 H18         1.1904    2.2140    1.8798 H         1 UNNAMED     0.0000 
     48 H19         3.6651    2.4223    1.4314 H         1 UNNAMED     0.0000 
     49 H20         3.3246    2.9250   -0.2408 H         1 UNNAMED     0.0000 
     50 H21         2.1536    5.0997   -0.7002 H         1 UNNAMED     0.0000 
     51 H22         1.8353    7.4396    0.0421 H         1 UNNAMED     0.0000 
     52 H23         2.2190    8.0562    2.4176 H         1 UNNAMED     0.0000 
     53 H24         2.9205    6.3201    4.0496 H         1 UNNAMED     0.0000 
     54 H25         3.2372    3.9789    3.3134 H         1 UNNAMED     0.0000 
@<TRIPOS>BOND
     1    1    2 ar   
     2    1    6 ar   
     3    1   29 1    
     4    2    3 ar   
     5    2   30 1    
     6    3    4 ar   
     7    3   31 1    
     8    4    5 ar   
     9    4    7 ar   
    10    5    6 ar   
    11    5    9 ar   
    12    6   32 1    
    13    7    8 ar   
    14    8    9 ar   
    15    8   10 1    
    16    9   14 1    
    17   10   11 2    
    18   10   12 am   
    19   12   13 1    
    20   12   33 1    
    21   13   21 1    
    22   13   34 1    
    23   13   35 1    
    24   14   15 1    
    25   15   16 1    
    26   15   20 1    
    27   15   36 1    
    28   16   17 1    
    29   16   37 1    
    30   16   38 1    
    31   17   18 1    
    32   17   39 1    
    33   17   40 1    
    34   18   19 1    
    35   18   41 1    
    36   19   20 1    
    37   19   42 1    
    38   19   43 1    
    39   20   44 1    
    40   20   45 1    
    41   21   22 1    
    42   21   46 1    
    43   21   47 1    
    44   22   23 1    
    45   22   48 1    
    46   22   49 1    
    47   23   24 ar   
    48   23   28 ar   
    49   24   25 ar   
    50   24   50 1    
    51   25   26 ar   
    52   25   51 1    
    53   26   27 ar   
    54   26   52 1    
    55   27   28 ar   
    56   27   53 1    
    57   28   54 1    
@<TRIPOS>SUBSTRUCTURE
     1 UNNAMED     1 TEMP              0 ****  ****    0 ROOT 
@<TRIPOS>NORMAL
@<TRIPOS>FF_PBC
FORCE_FIELD_SETUP_FEATURE Force Field Setup information
v1.0  0 0.000000 0.000000 0.000000 0.000000 0.000000 0.000000 NONE 0 0 0 0 1 0 0 0 0 0 0 0 0
