#	Name:			2_06a
#	Creating user name:	Mariana
#	Creation time:		Wed Jan 11 13:47:02 2017

#	Modifying user name:	Mariana
#	Modification time:	Wed Jan 11 13:47:02 2017

@<TRIPOS>MOLECULE
2_06a
   51    54     1     1     0
SMALL
NO_CHARGES


@<TRIPOS>ATOM
      1 C          -5.7716   -2.5124    0.5854 C.ar      1 UNNAMED     0.0000 
      2 C1         -5.5788   -3.5509   -0.3357 C.ar      1 UNNAMED     0.0000 
      3 C2         -4.3437   -3.7222   -0.9715 C.ar      1 UNNAMED     0.0000 
      4 C3         -3.3194   -2.8226   -0.6727 C.ar      1 UNNAMED     0.0000 
      5 C4         -3.5175   -1.7723    0.2218 C.ar      1 UNNAMED     0.0000 
      6 C5         -4.7367   -1.6187    0.8852 C.ar      1 UNNAMED     0.0000 
      7 S          -1.7563   -2.9187   -1.3552 S.3       1 UNNAMED     0.0000 
      8 C6         -1.3108   -1.5349   -0.4496 C.ar      1 UNNAMED     0.0000 
      9 C7         -2.3554   -1.0005    0.3057 C.ar      1 UNNAMED     0.0000 
     10 C8          0.0778   -0.9362   -0.4560 C.2       1 UNNAMED     0.0000 
     11 O           0.8928   -1.3776   -1.2484 O.2       1 UNNAMED     0.0000 
     12 N           0.3875    0.0628    0.4001 N.am      1 UNNAMED     0.0000 
     13 C9          1.7183    0.6643    0.3746 C.3       1 UNNAMED     0.0000 
     14 O1         -2.2366    0.1756    1.0490 O.3       1 UNNAMED     0.0000 
     15 C10        -2.9181    1.3173    0.4921 C.3       1 UNNAMED     0.0000 
     16 C11        -2.4076    1.6602   -0.9385 C.3       1 UNNAMED     0.0000 
     17 C12        -2.5603    3.1757   -1.2523 C.3       1 UNNAMED     0.0000 
     18 N1         -3.7170    3.7389   -0.5282 N.3       1 UNNAMED     0.0000 
     19 C13        -3.5816    3.7125    0.9495 C.3       1 UNNAMED     0.0000 
     20 C14        -2.6973    2.5265    1.4295 C.3       1 UNNAMED     0.0000 
     21 H1         -6.7347   -2.4000    1.0741 H         1 UNNAMED     0.0000 
     22 H2         -6.3953   -4.2314   -0.5580 H         1 UNNAMED     0.0000 
     23 H3         -4.1847   -4.5312   -1.6773 H         1 UNNAMED     0.0000 
     24 H4         -4.8790   -0.8326    1.6189 H         1 UNNAMED     0.0000 
     25 H5         -0.2867    0.3772    1.0740 H         1 UNNAMED     0.0000 
     26 H6          2.0406    0.8295   -0.6676 H         1 UNNAMED     0.0000 
     27 H7          2.4361   -0.0221    0.8527 H         1 UNNAMED     0.0000 
     28 C28         1.7332    2.0298    1.1070 C.3       1 UNNAMED     0.0000 
     29 C29         3.1376    2.6445    1.0297 C.ar      1 UNNAMED     0.0000 
     30 C30         3.4775    3.5008   -0.0239 C.ar      1 UNNAMED     0.0000 
     31 C31         4.7528    4.0699   -0.0881 C.ar      1 UNNAMED     0.0000 
     32 C32         5.6983    3.7806    0.8996 C.ar      1 UNNAMED     0.0000 
     33 C33         5.3666    2.9195    1.9493 C.ar      1 UNNAMED     0.0000 
     34 C34         4.0906    2.3517    2.0118 C.ar      1 UNNAMED     0.0000 
     35 H8         -4.0040    1.1258    0.4625 H         1 UNNAMED     0.0000 
     36 H9         -2.9761    1.0564   -1.6654 H         1 UNNAMED     0.0000 
     37 H10        -1.3443    1.3991   -1.0492 H         1 UNNAMED     0.0000 
     38 H11        -2.6696    3.3378   -2.3377 H         1 UNNAMED     0.0000 
     39 H12        -1.6649    3.7329   -0.9287 H         1 UNNAMED     0.0000 
     40 H13        -4.6340    3.2582   -0.8533 H         1 UNNAMED     0.0000 
     41 H14        -4.5815    3.6424    1.4128 H         1 UNNAMED     0.0000 
     42 H15        -3.1329    4.6634    1.2795 H         1 UNNAMED     0.0000 
     43 H16        -1.6286    2.7941    1.4017 H         1 UNNAMED     0.0000 
     44 H17        -2.9482    2.2586    2.4693 H         1 UNNAMED     0.0000 
     45 H18         1.4410    1.8949    2.1606 H         1 UNNAMED     0.0000 
     46 H19         0.9982    2.7039    0.6391 H         1 UNNAMED     0.0000 
     47 H20         2.7523    3.7272   -0.7993 H         1 UNNAMED     0.0000 
     48 H21         5.0094    4.7366   -0.9057 H         1 UNNAMED     0.0000 
     49 H22         6.6883    4.2236    0.8515 H         1 UNNAMED     0.0000 
     50 H23         6.1007    2.6914    2.7162 H         1 UNNAMED     0.0000 
     51 H24         3.8445    1.6800    2.8281 H         1 UNNAMED     0.0000 
@<TRIPOS>BOND
     1    1    2 ar   
     2    6    1 ar   
     3   13   28 1    
     4    3    2 ar   
     5   28   29 1    
     6    4    3 ar   
     7   29   30 ar   
     8    5    4 ar   
     9    7    4 ar   
    10    5    6 ar   
    11    9    5 ar   
    12   30   31 ar   
    13    8    7 ar   
    14    8    9 ar   
    15   10    8 1    
    16    9   14 1    
    17   10   11 2    
    18   12   10 am   
    19   12   13 1    
    20   31   32 ar   
    21    1   21 1    
    22   32   33 ar   
    23   33   34 ar   
    24   14   15 1    
    25   15   16 1    
    26   15   20 1    
    27   29   34 ar   
    28   16   17 1    
    29    2   22 1    
    30    3   23 1    
    31   17   18 1    
    32    6   24 1    
    33   12   25 1    
    34   18   19 1    
    35   13   26 1    
    36   20   19 1    
    37   13   27 1    
    38   15   35 1    
    39   16   36 1    
    40   16   37 1    
    41   17   38 1    
    42   17   39 1    
    43   18   40 1    
    44   19   41 1    
    45   19   42 1    
    46   20   43 1    
    47   20   44 1    
    48   28   45 1    
    49   28   46 1    
    50   30   47 1    
    51   31   48 1    
    52   32   49 1    
    53   33   50 1    
    54   34   51 1    
@<TRIPOS>SUBSTRUCTURE
     1 UNNAMED     1 TEMP              0 ****  ****    0 ROOT 
@<TRIPOS>NORMAL
@<TRIPOS>FF_PBC
FORCE_FIELD_SETUP_FEATURE Force Field Setup information
v1.0  0 0.000000 0.000000 0.000000 0.000000 0.000000 0.000000 NONE 0 0 0 0 1 0 0 0 0 0 0 0 0
