#	Name:			2_06c
#	Creating user name:	Mariana
#	Creation time:		Wed Jan 11 13:47:45 2017

#	Modifying user name:	Mariana
#	Modification time:	Wed Jan 11 13:47:45 2017

@<TRIPOS>MOLECULE
2_06c
   52    55     1     1     0
SMALL
NO_CHARGES


@<TRIPOS>ATOM
      1 C          -5.7709   -2.5109    0.5858 C.ar      1 UNNAMED     0.0000 
      2 C1         -5.5797   -3.5525   -0.3323 C.ar      1 UNNAMED     0.0000 
      3 C2         -4.3464   -3.7242   -0.9716 C.ar      1 UNNAMED     0.0000 
      4 C3         -3.3214   -2.8241   -0.6765 C.ar      1 UNNAMED     0.0000 
      5 C4         -3.5156   -1.7755    0.2199 C.ar      1 UNNAMED     0.0000 
      6 C5         -4.7355   -1.6160    0.8801 C.ar      1 UNNAMED     0.0000 
      7 S          -1.7683   -2.9160   -1.3644 S.3       1 UNNAMED     0.0000 
      8 C6         -1.3093   -1.5289   -0.4500 C.ar      1 UNNAMED     0.0000 
      9 C7         -2.3552   -1.0024    0.3133 C.ar      1 UNNAMED     0.0000 
     10 C8          0.0886   -0.9478   -0.4765 C.2       1 UNNAMED     0.0000 
     11 O           0.3998   -0.1383    0.3803 O.2       1 UNNAMED     0.0000 
     12 N           0.9727   -1.3129   -1.4320 N.am      1 UNNAMED     0.0000 
     13 C9          2.3000   -0.6978   -1.4677 C.3       1 UNNAMED     0.0000 
     14 O1         -2.2615    0.1640    1.0717 O.3       1 UNNAMED     0.0000 
     15 C10        -2.8865    1.3199    0.4826 C.3       1 UNNAMED     0.0000 
     16 C11        -2.2491    1.6885   -0.8883 C.3       1 UNNAMED     0.0000 
     17 C12        -2.3930    3.2059   -1.1986 C.3       1 UNNAMED     0.0000 
     18 N1         -3.6065    3.7527   -0.5598 N.3       1 UNNAMED     0.0000 
     19 C13        -3.5830    3.7075    0.9238 C.3       1 UNNAMED     0.0000 
     20 C14        -2.7425    2.5116    1.4559 C.3       1 UNNAMED     0.0000 
     21 H1         -6.7331   -2.3967    1.0761 H         1 UNNAMED     0.0000 
     22 H2         -6.3961   -4.2345   -0.5496 H         1 UNNAMED     0.0000 
     23 H3         -4.1897   -4.5340   -1.6768 H         1 UNNAMED     0.0000 
     24 H4         -4.8765   -0.8221    1.6061 H         1 UNNAMED     0.0000 
     25 H5          0.7280   -1.9692   -2.1473 H         1 UNNAMED     0.0000 
     26 H6          2.9676   -1.2530   -2.1483 H         1 UNNAMED     0.0000 
     27 H7          2.7642   -0.7103   -0.4674 H         1 UNNAMED     0.0000 
     28 H8         -3.9662    1.1306    0.3564 H         1 UNNAMED     0.0000 
     29 C29         2.1961    0.7632   -1.9692 C.3       1 UNNAMED     0.0000 
     30 O30         3.5237    1.2991   -2.1048 O.3       1 UNNAMED     0.0000 
     31 C31         3.7562    2.6116   -2.5419 C.ar      1 UNNAMED     0.0000 
     32 C32         5.0779    3.0552   -2.6442 C.ar      1 UNNAMED     0.0000 
     33 C33         5.3675    4.3532   -3.0740 C.ar      1 UNNAMED     0.0000 
     34 C34         4.3259    5.2228   -3.4064 C.ar      1 UNNAMED     0.0000 
     35 C35         3.0014    4.7884   -3.3072 C.ar      1 UNNAMED     0.0000 
     36 C36         2.7148    3.4886   -2.8775 C.ar      1 UNNAMED     0.0000 
     37 H9         -2.7318    1.0831   -1.6733 H         1 UNNAMED     0.0000 
     38 H10        -1.1760    1.4458   -0.8888 H         1 UNNAMED     0.0000 
     39 H11        -2.4193    3.3786   -2.2875 H         1 UNNAMED     0.0000 
     40 H12        -1.5312    3.7682   -0.8009 H         1 UNNAMED     0.0000 
     41 H13        -4.4918    3.2689   -0.9594 H         1 UNNAMED     0.0000 
     42 H14        -4.6157    3.6369    1.3084 H         1 UNNAMED     0.0000 
     43 H15        -3.1571    4.6521    1.2990 H         1 UNNAMED     0.0000 
     44 H16        -1.6737    2.7738    1.5196 H         1 UNNAMED     0.0000 
     45 H17        -3.0785    2.2264    2.4666 H         1 UNNAMED     0.0000 
     46 H18         1.6164    1.3579   -1.2454 H         1 UNNAMED     0.0000 
     47 H19         1.6818    0.7608   -2.9434 H         1 UNNAMED     0.0000 
     48 H20         5.8854    2.3784   -2.3851 H         1 UNNAMED     0.0000 
     49 H21         6.3988    4.6848   -3.1492 H         1 UNNAMED     0.0000 
     50 H22         4.5449    6.2325   -3.7406 H         1 UNNAMED     0.0000 
     51 H23         2.1918    5.4649   -3.5652 H         1 UNNAMED     0.0000 
     52 H24         1.6759    3.1891   -2.8145 H         1 UNNAMED     0.0000 
@<TRIPOS>BOND
     1    1    2 ar   
     2    6    1 ar   
     3   29   13 1    
     4    3    2 ar   
     5   30   29 1    
     6    4    3 ar   
     7   31   30 1    
     8    5    4 ar   
     9    7    4 ar   
    10    5    6 ar   
    11    9    5 ar   
    12   32   31 ar   
    13    8    7 ar   
    14    8    9 ar   
    15   10    8 1    
    16    9   14 1    
    17   10   11 2    
    18   12   10 am   
    19   13   12 1    
    20   33   32 ar   
    21    1   21 1    
    22   34   33 ar   
    23   35   36 ar   
    24   14   15 1    
    25   15   16 1    
    26   15   20 1    
    27   34   35 ar   
    28   16   17 1    
    29   31   36 ar   
    30    2   22 1    
    31   17   18 1    
    32    3   23 1    
    33    6   24 1    
    34   18   19 1    
    35   12   25 1    
    36   20   19 1    
    37   13   26 1    
    38   13   27 1    
    39   15   28 1    
    40   16   37 1    
    41   16   38 1    
    42   17   39 1    
    43   17   40 1    
    44   18   41 1    
    45   19   42 1    
    46   19   43 1    
    47   20   44 1    
    48   20   45 1    
    49   29   46 1    
    50   29   47 1    
    51   32   48 1    
    52   33   49 1    
    53   34   50 1    
    54   35   51 1    
    55   36   52 1    
@<TRIPOS>SUBSTRUCTURE
     1 UNNAMED     1 TEMP              0 ****  ****    0 ROOT 
@<TRIPOS>NORMAL
@<TRIPOS>FF_PBC
FORCE_FIELD_SETUP_FEATURE Force Field Setup information
v1.0  0 0.000000 0.000000 0.000000 0.000000 0.000000 0.000000 NONE 0 0 0 0 1 0 0 0 0 0 0 0 0
