#	Name:			2_09e
#	Creating user name:	Mariana
#	Creation time:		Wed Jan 11 13:49:42 2017

#	Modifying user name:	Mariana
#	Modification time:	Wed Jan 11 13:49:42 2017

@<TRIPOS>MOLECULE
2_09e
   57    61     1     1     0
SMALL
NO_CHARGES


@<TRIPOS>ATOM
      1 C          -5.7715   -2.5062    0.5808 C.ar      1 UNNAMED     0.0000 
      2 C1         -5.5739   -3.5539   -0.3295 C.ar      1 UNNAMED     0.0000 
      3 C2         -4.3403   -3.7255   -0.9689 C.ar      1 UNNAMED     0.0000 
      4 C3         -3.3173   -2.8223   -0.6760 C.ar      1 UNNAMED     0.0000 
      5 C4         -3.5154   -1.7788    0.2256 C.ar      1 UNNAMED     0.0000 
      6 C5         -4.7401   -1.6055    0.8717 C.ar      1 UNNAMED     0.0000 
      7 S          -1.7660   -2.9008   -1.3714 S.3       1 UNNAMED     0.0000 
      8 C6         -1.3265   -1.5228   -0.4699 C.ar      1 UNNAMED     0.0000 
      9 C7         -2.3488   -1.0196    0.3348 C.ar      1 UNNAMED     0.0000 
     10 C8          0.0230   -0.9279   -0.5659 C.ar      1 UNNAMED     0.0000 
     11 O           0.6876   -0.3448    0.5510 O.3       1 UNNAMED     0.0000 
     12 N           0.7635   -0.8413   -1.6794 N.ar      1 UNNAMED     0.0000 
     13 O1         -2.2269    0.1069    1.1459 O.3       1 UNNAMED     0.0000 
     14 C14        -2.6557    1.3460    0.5510 C.3       1 UNNAMED     0.0000 
     15 C15        -1.7510    1.7612   -0.6391 C.3       1 UNNAMED     0.0000 
     16 C16        -2.1667    3.1541   -1.1736 C.3       1 UNNAMED     0.0000 
     17 N17        -2.1236    4.1421   -0.0741 N.3       1 UNNAMED     0.0000 
     18 C18        -2.9971    3.8105    1.0718 C.3       1 UNNAMED     0.0000 
     19 C19        -2.5837    2.4347    1.6491 C.3       1 UNNAMED     0.0000 
     20 N2          1.8752    0.1498   -0.0521 N.ar      1 UNNAMED     0.0000 
     21 C14         1.8564   -0.1332   -1.3681 C.ar      1 UNNAMED     0.0000 
     22 C15         2.9120    0.3127   -2.3736 C.3       1 UNNAMED     0.0000 
     23 C16         2.2193    0.8354   -3.6390 C.ar      1 UNNAMED     0.0000 
     24 C17         2.6511    0.4433   -4.9113 C.ar      1 UNNAMED     0.0000 
     25 C18         1.9912    0.9040   -6.0538 C.ar      1 UNNAMED     0.0000 
     26 C19         0.9019    1.7695   -5.9329 C.ar      1 UNNAMED     0.0000 
     27 C20         0.4615    2.1601   -4.6659 C.ar      1 UNNAMED     0.0000 
     28 C21         1.1348    1.7134   -3.5264 C.ar      1 UNNAMED     0.0000 
     29 O2         -0.6484    2.9947   -4.5324 O.3       1 UNNAMED     0.0000 
     30 C22        -1.9060    2.3356   -4.7519 C.3       1 UNNAMED     0.0000 
     31 O3          2.4195    0.4993   -7.3174 O.3       1 UNNAMED     0.0000 
     32 C23         1.8697   -0.7607   -7.7338 C.3       1 UNNAMED     0.0000 
     33 H1         -6.7358   -2.3913    1.0670 H         1 UNNAMED     0.0000 
     34 H2         -6.3871   -4.2417   -0.5416 H         1 UNNAMED     0.0000 
     35 H3         -4.1821   -4.5365   -1.6724 H         1 UNNAMED     0.0000 
     36 H4         -4.8847   -0.7956    1.5795 H         1 UNNAMED     0.0000 
     37 H5         -3.7016    1.2537    0.2105 H         1 UNNAMED     0.0000 
     38 H6         -1.8186    1.0235   -1.4539 H         1 UNNAMED     0.0000 
     39 H7         -0.7056    1.8096   -0.2951 H         1 UNNAMED     0.0000 
     40 H8         -3.1790    3.1056   -1.6092 H         1 UNNAMED     0.0000 
     41 H9         -1.4639    3.4627   -1.9658 H         1 UNNAMED     0.0000 
     42 H10        -2.3449    5.1369   -0.4470 H         1 UNNAMED     0.0000 
     43 H11        -4.0545    3.7890    0.7585 H         1 UNNAMED     0.0000 
     44 H12        -2.8841    4.5789    1.8553 H         1 UNNAMED     0.0000 
     45 H13        -3.2438    2.1596    2.4882 H         1 UNNAMED     0.0000 
     46 H14        -1.5506    2.4952    2.0282 H         1 UNNAMED     0.0000 
     47 H15         3.5601   -0.5505   -2.5839 H         1 UNNAMED     0.0000 
     48 H16         3.5162    1.1192   -1.9327 H         1 UNNAMED     0.0000 
     49 H17         3.5011   -0.2206   -5.0243 H         1 UNNAMED     0.0000 
     50 H18         0.4021    2.1362   -6.8223 H         1 UNNAMED     0.0000 
     51 H19         0.8048    2.0551   -2.5516 H         1 UNNAMED     0.0000 
     52 H20        -2.0384    1.5056   -4.0409 H         1 UNNAMED     0.0000 
     53 H21        -1.9800    1.9484   -5.7796 H         1 UNNAMED     0.0000 
     54 H22        -2.7107    3.0684   -4.5936 H         1 UNNAMED     0.0000 
     55 H23         2.1653   -1.5668   -7.0444 H         1 UNNAMED     0.0000 
     56 H24         2.2588   -0.9930   -8.7361 H         1 UNNAMED     0.0000 
     57 H25         0.7708   -0.7080   -7.7842 H         1 UNNAMED     0.0000 
@<TRIPOS>BOND
     1    1    2 ar   
     2    6    1 ar   
     3   13   14 1    
     4    3    2 ar   
     5   14   15 1    
     6    4    3 ar   
     7   15   16 1    
     8    5    4 ar   
     9    7    4 ar   
    10    5    6 ar   
    11    9    5 ar   
    12   16   17 1    
    13    8    7 ar   
    14    9    8 ar   
    15    8   10 1    
    16    9   13 1    
    17   10   11 ar   
    18   10   12 ar   
    19   11   20 ar   
    20   12   21 ar   
    21   17   18 1    
    22   18   19 1    
    23   14   19 1    
    24    1   33 1    
    25    2   34 1    
    26    3   35 1    
    27    6   36 1    
    28   14   37 1    
    29   15   38 1    
    30   15   39 1    
    31   16   40 1    
    32   16   41 1    
    33   17   42 1    
    34   18   43 1    
    35   18   44 1    
    36   19   45 1    
    37   19   46 1    
    38   21   20 ar   
    39   21   22 1    
    40   22   23 1    
    41   22   47 1    
    42   22   48 1    
    43   23   24 ar   
    44   23   28 ar   
    45   24   25 ar   
    46   24   49 1    
    47   25   26 ar   
    48   25   31 1    
    49   26   27 ar   
    50   26   50 1    
    51   28   27 ar   
    52   27   29 1    
    53   28   51 1    
    54   29   30 1    
    55   30   52 1    
    56   30   53 1    
    57   30   54 1    
    58   31   32 1    
    59   32   55 1    
    60   32   56 1    
    61   32   57 1    
@<TRIPOS>SUBSTRUCTURE
     1 UNNAMED     1 TEMP              0 ****  ****    0 ROOT 
@<TRIPOS>NORMAL
@<TRIPOS>FF_PBC
FORCE_FIELD_SETUP_FEATURE Force Field Setup information
v1.0  0 0.000000 0.000000 0.000000 0.000000 0.000000 0.000000 NONE 0 0 0 0 1 0 0 0 0 0 0 0 0
