#	Name:			2_09b
#	Creating user name:	Mariana
#	Creation time:		Wed Jan 11 13:48:42 2017

#	Modifying user name:	Mariana
#	Modification time:	Wed Jan 11 13:48:42 2017

@<TRIPOS>MOLECULE
2_09b
   52    56     1     1     0
SMALL
NO_CHARGES


@<TRIPOS>ATOM
      1 C          -5.7717   -2.5089    0.5825 C.ar      1 UNNAMED     0.0000 
      2 C1         -5.5760   -3.5530   -0.3320 C.ar      1 UNNAMED     0.0000 
      3 C2         -4.3417   -3.7243   -0.9699 C.ar      1 UNNAMED     0.0000 
      4 C3         -3.3187   -2.8222   -0.6743 C.ar      1 UNNAMED     0.0000 
      5 C4         -3.5162   -1.7761    0.2241 C.ar      1 UNNAMED     0.0000 
      6 C5         -4.7390   -1.6107    0.8770 C.ar      1 UNNAMED     0.0000 
      7 S          -1.7587   -2.9062   -1.3652 S.3       1 UNNAMED     0.0000 
      8 C6         -1.3192   -1.5274   -0.4624 C.ar      1 UNNAMED     0.0000 
      9 C7         -2.3512   -1.0119    0.3237 C.ar      1 UNNAMED     0.0000 
     10 C8          0.0446   -0.9591   -0.5374 C.ar      1 UNNAMED     0.0000 
     11 O           0.5190   -0.0310    0.3844 O.3       1 UNNAMED     0.0000 
     12 N           0.9611   -1.2574   -1.4715 N.ar      1 UNNAMED     0.0000 
     13 O1         -2.2356    0.1323    1.1103 O.3       1 UNNAMED     0.0000 
     14 C14        -2.7982    1.3279    0.5388 C.3       1 UNNAMED     0.0000 
     15 C15        -2.0869    1.7288   -0.7800 C.3       1 UNNAMED     0.0000 
     16 C16        -2.6519    3.0727   -1.3032 C.3       1 UNNAMED     0.0000 
     17 N17        -2.5010    4.1121   -0.2618 N.3       1 UNNAMED     0.0000 
     18 C18        -3.1842    3.7957    1.0111 C.3       1 UNNAMED     0.0000 
     19 C19        -2.6300    2.4646    1.5759 C.3       1 UNNAMED     0.0000 
     20 N2          1.8753    0.2232   -0.1209 N.ar      1 UNNAMED     0.0000 
     21 C14         2.0618   -0.5393   -1.2131 C.ar      1 UNNAMED     0.0000 
     22 C15         3.3423   -0.5821   -2.0420 C.3       1 UNNAMED     0.0000 
     23 C16         4.1122   -1.8925   -1.7386 C.3       1 UNNAMED     0.0000 
     24 C17         5.4355   -2.0867   -2.5016 C.ar      1 UNNAMED     0.0000 
     25 C18         6.1673   -3.2530   -2.2457 C.ar      1 UNNAMED     0.0000 
     26 C19         7.3778   -3.4998   -2.8995 C.ar      1 UNNAMED     0.0000 
     27 C20         7.8722   -2.5754   -3.8226 C.ar      1 UNNAMED     0.0000 
     28 C21         7.1506   -1.4085   -4.0857 C.ar      1 UNNAMED     0.0000 
     29 C22         5.9399   -1.1652   -3.4296 C.ar      1 UNNAMED     0.0000 
     30 H1         -6.7355   -2.3950    1.0697 H         1 UNNAMED     0.0000 
     31 H2         -6.3905   -4.2379   -0.5482 H         1 UNNAMED     0.0000 
     32 H3         -4.1828   -4.5346   -1.6744 H         1 UNNAMED     0.0000 
     33 H4         -4.8830   -0.8100    1.5950 H         1 UNNAMED     0.0000 
     34 H5         -3.8741    1.1804    0.3440 H         1 UNNAMED     0.0000 
     35 H6         -2.2231    0.9495   -1.5471 H         1 UNNAMED     0.0000 
     36 H7         -1.0084    1.8464   -0.5900 H         1 UNNAMED     0.0000 
     37 H8         -3.7136    2.9555   -1.5794 H         1 UNNAMED     0.0000 
     38 H9         -2.0919    3.3729   -2.2051 H         1 UNNAMED     0.0000 
     39 H10        -2.8239    5.0775   -0.6375 H         1 UNNAMED     0.0000 
     40 H11        -4.2734    3.7169    0.8553 H         1 UNNAMED     0.0000 
     41 H12        -2.9969    4.6022    1.7401 H         1 UNNAMED     0.0000 
     42 H13        -3.1550    2.1975    2.5078 H         1 UNNAMED     0.0000 
     43 H14        -1.5586    2.5846    1.8053 H         1 UNNAMED     0.0000 
     44 H15         3.9474    0.3001   -1.7806 H         1 UNNAMED     0.0000 
     45 H16         3.0531   -0.5307   -3.1029 H         1 UNNAMED     0.0000 
     46 H17         3.4575   -2.7462   -1.9780 H         1 UNNAMED     0.0000 
     47 H18         4.3372   -1.9218   -0.6601 H         1 UNNAMED     0.0000 
     48 H19         5.7941   -3.9796   -1.5305 H         1 UNNAMED     0.0000 
     49 H20         7.9339   -4.4087   -2.6904 H         1 UNNAMED     0.0000 
     50 H21         8.8122   -2.7630   -4.3327 H         1 UNNAMED     0.0000 
     51 H22         7.5329   -0.6884   -4.8030 H         1 UNNAMED     0.0000 
     52 H23         5.4094   -0.2495   -3.6603 H         1 UNNAMED     0.0000 
@<TRIPOS>BOND
     1    1    2 ar   
     2    6    1 ar   
     3   13   14 1    
     4    3    2 ar   
     5   14   15 1    
     6    4    3 ar   
     7   15   16 1    
     8    5    4 ar   
     9    7    4 ar   
    10    5    6 ar   
    11    9    5 ar   
    12   16   17 1    
    13    8    7 ar   
    14    9    8 ar   
    15    8   10 1    
    16    9   13 1    
    17   10   11 ar   
    18   10   12 ar   
    19   11   20 ar   
    20   12   21 ar   
    21   17   18 1    
    22   18   19 1    
    23   14   19 1    
    24    1   30 1    
    25    2   31 1    
    26    3   32 1    
    27    6   33 1    
    28   14   34 1    
    29   15   35 1    
    30   15   36 1    
    31   16   37 1    
    32   16   38 1    
    33   17   39 1    
    34   18   40 1    
    35   18   41 1    
    36   19   42 1    
    37   19   43 1    
    38   21   20 ar   
    39   21   22 1    
    40   22   23 1    
    41   22   44 1    
    42   22   45 1    
    43   23   24 1    
    44   23   46 1    
    45   23   47 1    
    46   24   25 ar   
    47   24   29 ar   
    48   25   26 ar   
    49   25   48 1    
    50   26   27 ar   
    51   26   49 1    
    52   27   28 ar   
    53   27   50 1    
    54   29   28 ar   
    55   28   51 1    
    56   29   52 1    
@<TRIPOS>SUBSTRUCTURE
     1 UNNAMED     1 TEMP              0 ****  ****    0 ROOT 
@<TRIPOS>NORMAL
@<TRIPOS>FF_PBC
FORCE_FIELD_SETUP_FEATURE Force Field Setup information
v1.0  0 0.000000 0.000000 0.000000 0.000000 0.000000 0.000000 NONE 0 0 0 0 1 0 0 0 0 0 0 0 0
