#	Name:			2_09c
#	Creating user name:	Mariana
#	Creation time:		Wed Jan 11 13:49:19 2017

#	Modifying user name:	Mariana
#	Modification time:	Wed Jan 11 13:49:19 2017

@<TRIPOS>MOLECULE
2_09c
   53    57     1     1     0
SMALL
NO_CHARGES


@<TRIPOS>ATOM
      1 C          -5.7715   -2.5085    0.5827 C.ar      1 UNNAMED     0.0000 
      2 C1         -5.5767   -3.5530   -0.3317 C.ar      1 UNNAMED     0.0000 
      3 C2         -4.3427   -3.7250   -0.9700 C.ar      1 UNNAMED     0.0000 
      4 C3         -3.3192   -2.8232   -0.6751 C.ar      1 UNNAMED     0.0000 
      5 C4         -3.5156   -1.7767    0.2235 C.ar      1 UNNAMED     0.0000 
      6 C5         -4.7383   -1.6109    0.8765 C.ar      1 UNNAMED     0.0000 
      7 S          -1.7590   -2.9086   -1.3679 S.3       1 UNNAMED     0.0000 
      8 C6         -1.3185   -1.5258   -0.4615 C.ar      1 UNNAMED     0.0000 
      9 C7         -2.3512   -1.0115    0.3242 C.ar      1 UNNAMED     0.0000 
     10 C8          0.0457   -0.9591   -0.5375 C.ar      1 UNNAMED     0.0000 
     11 O           0.5251   -0.0398    0.3793 O.3       1 UNNAMED     0.0000 
     12 N           0.9557   -1.2607   -1.4757 N.ar      1 UNNAMED     0.0000 
     13 O1         -2.2370    0.1326    1.1111 O.3       1 UNNAMED     0.0000 
     14 C14        -2.7986    1.3281    0.5381 C.3       1 UNNAMED     0.0000 
     15 C15        -2.0840    1.7285   -0.7792 C.3       1 UNNAMED     0.0000 
     16 C16        -2.6477    3.0723   -1.3041 C.3       1 UNNAMED     0.0000 
     17 N17        -2.4993    4.1119   -0.2626 N.3       1 UNNAMED     0.0000 
     18 C18        -3.1858    3.7959    1.0085 C.3       1 UNNAMED     0.0000 
     19 C19        -2.6330    2.4650    1.5753 C.3       1 UNNAMED     0.0000 
     20 N2          1.8803    0.1983   -0.1152 N.ar      1 UNNAMED     0.0000 
     21 C14         2.0671   -0.5631   -1.2085 C.ar      1 UNNAMED     0.0000 
     22 C15         3.3544   -0.6298   -2.0235 C.3       1 UNNAMED     0.0000 
     23 C16         3.7423   -2.1006   -2.2261 C.ar      1 UNNAMED     0.0000 
     24 C17         4.8814   -2.6355   -1.6143 C.ar      1 UNNAMED     0.0000 
     25 C18         5.2109   -3.9801   -1.8028 C.ar      1 UNNAMED     0.0000 
     26 C19         4.3918   -4.7942   -2.5896 C.ar      1 UNNAMED     0.0000 
     27 C20         3.2456   -4.2761   -3.1980 C.ar      1 UNNAMED     0.0000 
     28 C21         2.9414   -2.9182   -3.0324 C.ar      1 UNNAMED     0.0000 
     29 O2          2.4381   -5.1397   -3.9531 O.3       1 UNNAMED     0.0000 
     30 C22         1.1480   -4.7368   -4.4420 C.3       1 UNNAMED     0.0000 
     31 H1         -6.7352   -2.3940    1.0701 H         1 UNNAMED     0.0000 
     32 H2         -6.3916   -4.2376   -0.5473 H         1 UNNAMED     0.0000 
     33 H3         -4.1844   -4.5355   -1.6741 H         1 UNNAMED     0.0000 
     34 H4         -4.8819   -0.8099    1.5944 H         1 UNNAMED     0.0000 
     35 H5         -3.8741    1.1803    0.3409 H         1 UNNAMED     0.0000 
     36 H6         -2.2187    0.9490   -1.5463 H         1 UNNAMED     0.0000 
     37 H7         -1.0060    1.8457   -0.5864 H         1 UNNAMED     0.0000 
     38 H8         -3.7087    2.9549   -1.5828 H         1 UNNAMED     0.0000 
     39 H9         -2.0854    3.3720   -2.2046 H         1 UNNAMED     0.0000 
     40 H10        -2.8213    5.0772   -0.6395 H         1 UNNAMED     0.0000 
     41 H11        -4.2748    3.7170    0.8500 H         1 UNNAMED     0.0000 
     42 H12        -3.0005    4.6026    1.7377 H         1 UNNAMED     0.0000 
     43 H13        -3.1604    2.1984    2.5060 H         1 UNNAMED     0.0000 
     44 H14        -1.5623    2.5853    1.8074 H         1 UNNAMED     0.0000 
     45 H15         4.1369   -0.0656   -1.4947 H         1 UNNAMED     0.0000 
     46 H16         3.1773   -0.1524   -2.9986 H         1 UNNAMED     0.0000 
     47 H17         5.5152   -2.0137   -0.9901 H         1 UNNAMED     0.0000 
     48 H18         6.1010   -4.3927   -1.3376 H         1 UNNAMED     0.0000 
     49 H19         4.6427   -5.8402   -2.7315 H         1 UNNAMED     0.0000 
     50 H20         2.0840   -2.4747   -3.5216 H         1 UNNAMED     0.0000 
     51 H21         0.4975   -4.4115   -3.6151 H         1 UNNAMED     0.0000 
     52 H22         0.6866   -5.6099   -4.9260 H         1 UNNAMED     0.0000 
     53 H23         1.2378   -3.9369   -5.1926 H         1 UNNAMED     0.0000 
@<TRIPOS>BOND
     1    1    2 ar   
     2    6    1 ar   
     3   13   14 1    
     4    3    2 ar   
     5   14   15 1    
     6    4    3 ar   
     7   15   16 1    
     8    5    4 ar   
     9    7    4 ar   
    10    5    6 ar   
    11    9    5 ar   
    12   16   17 1    
    13    8    7 ar   
    14    9    8 ar   
    15    8   10 1    
    16    9   13 1    
    17   10   11 ar   
    18   10   12 ar   
    19   11   20 ar   
    20   12   21 ar   
    21   17   18 1    
    22   18   19 1    
    23   14   19 1    
    24    1   31 1    
    25    2   32 1    
    26    3   33 1    
    27    6   34 1    
    28   14   35 1    
    29   15   36 1    
    30   15   37 1    
    31   16   38 1    
    32   16   39 1    
    33   17   40 1    
    34   18   41 1    
    35   18   42 1    
    36   19   43 1    
    37   19   44 1    
    38   21   20 ar   
    39   21   22 1    
    40   22   23 1    
    41   22   45 1    
    42   22   46 1    
    43   23   24 ar   
    44   23   28 ar   
    45   24   25 ar   
    46   24   47 1    
    47   25   26 ar   
    48   25   48 1    
    49   26   27 ar   
    50   26   49 1    
    51   28   27 ar   
    52   27   29 1    
    53   28   50 1    
    54   29   30 1    
    55   30   51 1    
    56   30   52 1    
    57   30   53 1    
@<TRIPOS>SUBSTRUCTURE
     1 UNNAMED     1 TEMP              0 ****  ****    0 ROOT 
@<TRIPOS>NORMAL
@<TRIPOS>FF_PBC
FORCE_FIELD_SETUP_FEATURE Force Field Setup information
v1.0  0 0.000000 0.000000 0.000000 0.000000 0.000000 0.000000 NONE 0 0 0 0 1 0 0 0 0 0 0 0 0
