#	Name:			2_09d
#	Creating user name:	Mariana
#	Creation time:		Wed Jan 11 13:49:01 2017

#	Modifying user name:	Mariana
#	Modification time:	Wed Jan 11 13:49:01 2017

@<TRIPOS>MOLECULE
2_09d
   49    53     1     1     0
SMALL
NO_CHARGES


@<TRIPOS>ATOM
      1 C          -5.7713   -2.5108    0.5842 C.ar      1 UNNAMED     0.0000 
      2 C1         -5.5778   -3.5519   -0.3341 C.ar      1 UNNAMED     0.0000 
      3 C2         -4.3432   -3.7235   -0.9709 C.ar      1 UNNAMED     0.0000 
      4 C3         -3.3194   -2.8228   -0.6737 C.ar      1 UNNAMED     0.0000 
      5 C4         -3.5162   -1.7740    0.2223 C.ar      1 UNNAMED     0.0000 
      6 C5         -4.7369   -1.6155    0.8813 C.ar      1 UNNAMED     0.0000 
      7 S          -1.7575   -2.9138   -1.3604 S.3       1 UNNAMED     0.0000 
      8 C6         -1.3153   -1.5323   -0.4549 C.ar      1 UNNAMED     0.0000 
      9 C7         -2.3537   -1.0038    0.3144 C.ar      1 UNNAMED     0.0000 
     10 C8          0.0574   -0.9834   -0.5122 C.ar      1 UNNAMED     0.0000 
     11 O           0.5263   -0.0492    0.3985 O.3       1 UNNAMED     0.0000 
     12 N           0.9866   -1.3125   -1.4226 N.ar      1 UNNAMED     0.0000 
     13 O1         -2.2444    0.1569    1.0791 O.3       1 UNNAMED     0.0000 
     14 C14        -2.8753    1.3196    0.5102 C.3       1 UNNAMED     0.0000 
     15 C15        -2.2541    1.6982   -0.8651 C.3       1 UNNAMED     0.0000 
     16 C16        -2.4019    3.2183   -1.1606 C.3       1 UNNAMED     0.0000 
     17 N17        -3.6056    3.7608   -0.4998 N.3       1 UNNAMED     0.0000 
     18 C18        -3.5621    3.7038    0.9828 C.3       1 UNNAMED     0.0000 
     19 C19        -2.7160    2.5022    1.4926 C.3       1 UNNAMED     0.0000 
     20 N2          1.8940    0.1682   -0.0715 N.ar      1 UNNAMED     0.0000 
     21 C14         2.0963   -0.6165   -1.1451 C.ar      1 UNNAMED     0.0000 
     22 C15         3.3984   -0.7061   -1.9323 C.3       1 UNNAMED     0.0000 
     23 C16         3.8537   -2.1701   -1.9637 C.ar      1 UNNAMED     0.0000 
     24 C17         4.9307   -2.6078   -1.1840 C.ar      1 UNNAMED     0.0000 
     25 C18         5.3375   -3.9447   -1.2298 C.ar      1 UNNAMED     0.0000 
     26 C19         4.6648   -4.8530   -2.0519 C.ar      1 UNNAMED     0.0000 
     27 C20         3.5847   -4.4227   -2.8268 C.ar      1 UNNAMED     0.0000 
     28 C21         3.1821   -3.0854   -2.7818 C.ar      1 UNNAMED     0.0000 
     29 Cl          2.7351   -5.5593   -3.8541 Cl        1 UNNAMED     0.0000 
     30 H1         -6.7346   -2.3973    1.0724 H         1 UNNAMED     0.0000 
     31 H2         -6.3938   -4.2339   -0.5536 H         1 UNNAMED     0.0000 
     32 H3         -4.1845   -4.5333   -1.6758 H         1 UNNAMED     0.0000 
     33 H4         -4.8797   -0.8230    1.6085 H         1 UNNAMED     0.0000 
     34 H5         -3.9571    1.1354    0.3960 H         1 UNNAMED     0.0000 
     35 H6         -2.7479    1.1004   -1.6492 H         1 UNNAMED     0.0000 
     36 H7         -1.1813    1.4526   -0.8805 H         1 UNNAMED     0.0000 
     37 H8         -2.4436    3.4005   -2.2475 H         1 UNNAMED     0.0000 
     38 H9         -1.5342    3.7767   -0.7703 H         1 UNNAMED     0.0000 
     39 H10        -4.4976    3.2834   -0.8920 H         1 UNNAMED     0.0000 
     40 H11        -4.5896    3.6316    1.3808 H         1 UNNAMED     0.0000 
     41 H12        -3.1295    4.6447    1.3597 H         1 UNNAMED     0.0000 
     42 H13        -3.0389    2.2085    2.5052 H         1 UNNAMED     0.0000 
     43 H14        -1.6461    2.7628    1.5443 H         1 UNNAMED     0.0000 
     44 H15         4.1478   -0.0536   -1.4603 H         1 UNNAMED     0.0000 
     45 H16         3.2157   -0.3448   -2.9551 H         1 UNNAMED     0.0000 
     46 H17         5.4568   -1.9131   -0.5369 H         1 UNNAMED     0.0000 
     47 H18         6.1762   -4.2783   -0.6261 H         1 UNNAMED     0.0000 
     48 H19         4.9786   -5.8912   -2.0895 H         1 UNNAMED     0.0000 
     49 H20         2.3412   -2.7613   -3.3860 H         1 UNNAMED     0.0000 
@<TRIPOS>BOND
     1    1    2 ar   
     2    6    1 ar   
     3   13   14 1    
     4    3    2 ar   
     5   14   15 1    
     6    4    3 ar   
     7   15   16 1    
     8    5    4 ar   
     9    7    4 ar   
    10    5    6 ar   
    11    9    5 ar   
    12   16   17 1    
    13    8    7 ar   
    14    9    8 ar   
    15    8   10 1    
    16    9   13 1    
    17   10   11 ar   
    18   10   12 ar   
    19   11   20 ar   
    20   12   21 ar   
    21   17   18 1    
    22   18   19 1    
    23   14   19 1    
    24    1   30 1    
    25    2   31 1    
    26    3   32 1    
    27    6   33 1    
    28   14   34 1    
    29   15   35 1    
    30   15   36 1    
    31   16   37 1    
    32   16   38 1    
    33   17   39 1    
    34   18   40 1    
    35   18   41 1    
    36   19   42 1    
    37   19   43 1    
    38   21   20 ar   
    39   21   22 1    
    40   22   23 1    
    41   22   44 1    
    42   22   45 1    
    43   23   24 ar   
    44   23   28 ar   
    45   24   25 ar   
    46   24   46 1    
    47   25   26 ar   
    48   25   47 1    
    49   26   27 ar   
    50   26   48 1    
    51   28   27 ar   
    52   27   29 1    
    53   28   49 1    
@<TRIPOS>SUBSTRUCTURE
     1 UNNAMED     1 TEMP              0 ****  ****    0 ROOT 
@<TRIPOS>NORMAL
@<TRIPOS>FF_PBC
FORCE_FIELD_SETUP_FEATURE Force Field Setup information
v1.0  0 0.000000 0.000000 0.000000 0.000000 0.000000 0.000000 NONE 0 0 0 0 1 0 0 0 0 0 0 0 0
