#	Name:			2_09a
#	Creating user name:	Mariana
#	Creation time:		Wed Jan 11 13:48:21 2017

#	Modifying user name:	Mariana
#	Modification time:	Wed Jan 11 13:48:21 2017

@<TRIPOS>MOLECULE
2_09a
   49    53     1     1     0
SMALL
NO_CHARGES


@<TRIPOS>ATOM
      1 C          -5.7712   -2.5107    0.5843 C.ar      1 UNNAMED     0.0000 
      2 C1         -5.5774   -3.5523   -0.3334 C.ar      1 UNNAMED     0.0000 
      3 C2         -4.3431   -3.7235   -0.9711 C.ar      1 UNNAMED     0.0000 
      4 C3         -3.3195   -2.8225   -0.6742 C.ar      1 UNNAMED     0.0000 
      5 C4         -3.5163   -1.7742    0.2223 C.ar      1 UNNAMED     0.0000 
      6 C5         -4.7374   -1.6145    0.8803 C.ar      1 UNNAMED     0.0000 
      7 S          -1.7575   -2.9122   -1.3619 S.3       1 UNNAMED     0.0000 
      8 C6         -1.3156   -1.5317   -0.4555 C.ar      1 UNNAMED     0.0000 
      9 C7         -2.3533   -1.0051    0.3158 C.ar      1 UNNAMED     0.0000 
     10 C8          0.0563   -0.9807   -0.5138 C.ar      1 UNNAMED     0.0000 
     11 O           0.5267   -0.0542    0.4030 O.3       1 UNNAMED     0.0000 
     12 N           0.9829   -1.3005   -1.4302 N.ar      1 UNNAMED     0.0000 
     13 O1         -2.2433    0.1533    1.0833 O.3       1 UNNAMED     0.0000 
     14 C14        -2.8669    1.3184    0.5111 C.3       1 UNNAMED     0.0000 
     15 C15        -2.2345    1.6965   -0.8586 C.3       1 UNNAMED     0.0000 
     16 C16        -2.4454    3.2024   -1.1832 C.3       1 UNNAMED     0.0000 
     17 N17        -3.6627    3.6800   -0.4961 N.3       1 UNNAMED     0.0000 
     18 C18        -3.5654    3.6926    0.9829 C.3       1 UNNAMED     0.0000 
     19 C19        -2.7087    2.5008    1.4938 C.3       1 UNNAMED     0.0000 
     20 N2          1.8900    0.1708   -0.0685 N.ar      1 UNNAMED     0.0000 
     21 C14         2.0916   -0.6037   -1.1497 C.ar      1 UNNAMED     0.0000 
     22 C15         3.3907   -0.6796   -1.9428 C.3       1 UNNAMED     0.0000 
     23 C16         3.9843   -2.0839   -1.7798 C.ar      1 UNNAMED     0.0000 
     24 C17         5.0929   -2.3062   -0.9546 C.ar      1 UNNAMED     0.0000 
     25 C18         5.6309   -3.5903   -0.8273 C.ar      1 UNNAMED     0.0000 
     26 C19         5.0590   -4.6611   -1.5199 C.ar      1 UNNAMED     0.0000 
     27 C20         3.9460   -4.4461   -2.3373 C.ar      1 UNNAMED     0.0000 
     28 C21         3.4099   -3.1612   -2.4638 C.ar      1 UNNAMED     0.0000 
     29 H1         -6.7344   -2.3975    1.0727 H         1 UNNAMED     0.0000 
     30 H2         -6.3930   -4.2353   -0.5519 H         1 UNNAMED     0.0000 
     31 H3         -4.1846   -4.5330   -1.6763 H         1 UNNAMED     0.0000 
     32 H4         -4.8805   -0.8202    1.6055 H         1 UNNAMED     0.0000 
     33 H5         -3.9488    1.1417    0.3833 H         1 UNNAMED     0.0000 
     34 H6         -2.6899    1.0622   -1.6375 H         1 UNNAMED     0.0000 
     35 H7         -1.1526    1.4935   -0.8487 H         1 UNNAMED     0.0000 
     36 H8         -2.5264    3.3405   -2.2749 H         1 UNNAMED     0.0000 
     37 H9         -1.5881    3.8027   -0.8320 H         1 UNNAMED     0.0000 
     38 H10        -3.9692    4.6510   -0.8713 H         1 UNNAMED     0.0000 
     39 H11        -4.5965    3.5939    1.3604 H         1 UNNAMED     0.0000 
     40 H12        -3.1481    4.6406    1.3639 H         1 UNNAMED     0.0000 
     41 H13        -3.0256    2.2071    2.5083 H         1 UNNAMED     0.0000 
     42 H14        -1.6409    2.7710    1.5381 H         1 UNNAMED     0.0000 
     43 H15         4.0773    0.0999   -1.5808 H         1 UNNAMED     0.0000 
     44 H16         3.1686   -0.4835   -3.0021 H         1 UNNAMED     0.0000 
     45 H17         5.5418   -1.4839   -0.4066 H         1 UNNAMED     0.0000 
     46 H18         6.4938   -3.7565   -0.1895 H         1 UNNAMED     0.0000 
     47 H19         5.4780   -5.6581   -1.4227 H         1 UNNAMED     0.0000 
     48 H20         3.4977   -5.2768   -2.8735 H         1 UNNAMED     0.0000 
     49 H21         2.5416   -3.0025   -3.0958 H         1 UNNAMED     0.0000 
@<TRIPOS>BOND
     1    1    2 ar   
     2    6    1 ar   
     3   13   14 1    
     4    3    2 ar   
     5   14   15 1    
     6    4    3 ar   
     7   15   16 1    
     8    5    4 ar   
     9    7    4 ar   
    10    5    6 ar   
    11    9    5 ar   
    12   16   17 1    
    13    8    7 ar   
    14    9    8 ar   
    15    8   10 1    
    16    9   13 1    
    17   10   11 ar   
    18   10   12 ar   
    19   11   20 ar   
    20   12   21 ar   
    21   17   18 1    
    22   18   19 1    
    23   14   19 1    
    24    1   29 1    
    25    2   30 1    
    26    3   31 1    
    27    6   32 1    
    28   14   33 1    
    29   15   34 1    
    30   15   35 1    
    31   16   36 1    
    32   16   37 1    
    33   17   38 1    
    34   18   39 1    
    35   18   40 1    
    36   19   41 1    
    37   19   42 1    
    38   21   20 ar   
    39   21   22 1    
    40   22   23 1    
    41   22   43 1    
    42   22   44 1    
    43   23   24 ar   
    44   23   28 ar   
    45   24   25 ar   
    46   24   45 1    
    47   25   26 ar   
    48   25   46 1    
    49   26   27 ar   
    50   26   47 1    
    51   28   27 ar   
    52   27   48 1    
    53   28   49 1    
@<TRIPOS>SUBSTRUCTURE
     1 UNNAMED     1 TEMP              0 ****  ****    0 ROOT 
@<TRIPOS>NORMAL
@<TRIPOS>FF_PBC
FORCE_FIELD_SETUP_FEATURE Force Field Setup information
v1.0  0 0.000000 0.000000 0.000000 0.000000 0.000000 0.000000 NONE 0 0 0 0 1 0 0 0 0 0 0 0 0
