#	Name:			2_14c
#	Creating user name:	Mariana
#	Creation time:		Wed Jan 11 13:50:33 2017

#	Modifying user name:	Mariana
#	Modification time:	Wed Jan 11 13:50:33 2017

@<TRIPOS>MOLECULE
2_14c
   57    61     1     1     0
SMALL
NO_CHARGES


@<TRIPOS>ATOM
      1 C          -5.7712   -2.5045    0.5806 C.ar      1 UNNAMED     0.0000 
      2 C1         -5.5755   -3.5533   -0.3287 C.ar      1 UNNAMED     0.0000 
      3 C2         -4.3423   -3.7268   -0.9683 C.ar      1 UNNAMED     0.0000 
      4 C3         -3.3164   -2.8259   -0.6780 C.ar      1 UNNAMED     0.0000 
      5 C4         -3.5131   -1.7808    0.2242 C.ar      1 UNNAMED     0.0000 
      6 C5         -4.7380   -1.6056    0.8699 C.ar      1 UNNAMED     0.0000 
      7 S          -1.7777   -2.9125   -1.3744 S.3       1 UNNAMED     0.0000 
      8 C6         -1.3287   -1.5186   -0.4693 C.ar      1 UNNAMED     0.0000 
      9 C9         -2.3487   -1.0191    0.3383 C.ar      1 UNNAMED     0.0000 
     10 C7          0.0151   -0.9117   -0.5702 C.ar      1 UNNAMED     0.0000 
     11 N           0.7790   -0.5008    0.4594 N.ar      1 UNNAMED     0.0000 
     12 N1          0.6542   -0.6494   -1.7170 N.ar      1 UNNAMED     0.0000 
     13 O          -2.2206    0.1034    1.1533 O.3       1 UNNAMED     0.0000 
     14 C14        -2.6349    1.3547    0.5729 C.3       1 UNNAMED     0.0000 
     15 C15        -1.8016    1.7582   -0.6710 C.3       1 UNNAMED     0.0000 
     16 C16        -2.3997    3.0583   -1.2792 C.3       1 UNNAMED     0.0000 
     17 N17        -3.0334    3.8968   -0.2353 N.3       1 UNNAMED     0.0000 
     18 C18        -2.3341    3.8634    1.0643 C.3       1 UNNAMED     0.0000 
     19 C19        -2.4803    2.4413    1.6731 C.3       1 UNNAMED     0.0000 
     20 O1          1.9653    0.1493   -0.0520 O.3       1 UNNAMED     0.0000 
     21 C12         1.7541    0.0558   -1.4165 C.ar      1 UNNAMED     0.0000 
     22 C13         2.6503    0.7017   -2.4640 C.3       1 UNNAMED     0.0000 
     23 C14         1.9423    1.9886   -2.9060 C.ar      1 UNNAMED     0.0000 
     24 C15         2.4826    3.2456   -2.6162 C.ar      1 UNNAMED     0.0000 
     25 C16         1.8156    4.4149   -2.9890 C.ar      1 UNNAMED     0.0000 
     26 C17         0.5900    4.3149   -3.6601 C.ar      1 UNNAMED     0.0000 
     27 C18         0.0379    3.0668   -3.9610 C.ar      1 UNNAMED     0.0000 
     28 C19         0.7307    1.9039   -3.6004 C.ar      1 UNNAMED     0.0000 
     29 O2         -1.2033    3.0267   -4.6128 O.3       1 UNNAMED     0.0000 
     30 C20        -1.8519    1.7901   -4.9525 C.3       1 UNNAMED     0.0000 
     31 O3          2.4013    5.6494   -2.6734 O.3       1 UNNAMED     0.0000 
     32 C21         1.7609    6.8984   -2.9814 C.3       1 UNNAMED     0.0000 
     33 H1         -6.7349   -2.3873    1.0670 H         1 UNNAMED     0.0000 
     34 H2         -6.3896   -4.2399   -0.5398 H         1 UNNAMED     0.0000 
     35 H3         -4.1864   -4.5390   -1.6709 H         1 UNNAMED     0.0000 
     36 H4         -4.8810   -0.7945    1.5765 H         1 UNNAMED     0.0000 
     37 H5         -3.6939    1.2856    0.2668 H         1 UNNAMED     0.0000 
     38 H6         -1.8069    0.9704   -1.4397 H         1 UNNAMED     0.0000 
     39 H7         -0.7580    1.9156   -0.3524 H         1 UNNAMED     0.0000 
     40 H8         -3.1972    2.8027   -1.9964 H         1 UNNAMED     0.0000 
     41 H9         -1.6139    3.6102   -1.8214 H         1 UNNAMED     0.0000 
     42 H10        -3.1625    4.9161   -0.5846 H         1 UNNAMED     0.0000 
     43 H11        -2.7509    4.6113    1.7600 H         1 UNNAMED     0.0000 
     44 H12        -1.2712    4.1123    0.9001 H         1 UNNAMED     0.0000 
     45 H13        -3.3630    2.3890    2.3322 H         1 UNNAMED     0.0000 
     46 H14        -1.5909    2.2287    2.2895 H         1 UNNAMED     0.0000 
     47 H15         2.7675    0.0164   -3.3164 H         1 UNNAMED     0.0000 
     48 H16         3.6380    0.8932   -2.0198 H         1 UNNAMED     0.0000 
     49 H17         3.4291    3.3292   -2.0933 H         1 UNNAMED     0.0000 
     50 H18         0.0355    5.1936   -3.9628 H         1 UNNAMED     0.0000 
     51 H19         0.3448    0.9230   -3.8466 H         1 UNNAMED     0.0000 
     52 H20        -2.8063    2.0368   -5.4399 H         1 UNNAMED     0.0000 
     53 H21        -2.0672    1.1928   -4.0537 H         1 UNNAMED     0.0000 
     54 H22        -1.2431    1.2063   -5.6595 H         1 UNNAMED     0.0000 
     55 H23         2.4135    7.7070   -2.6206 H         1 UNNAMED     0.0000 
     56 H24         0.7902    6.9812   -2.4687 H         1 UNNAMED     0.0000 
     57 H25         1.6295    7.0189   -4.0677 H         1 UNNAMED     0.0000 
@<TRIPOS>BOND
     1    1    2 ar   
     2    6    1 ar   
     3   13   14 1    
     4    3    2 ar   
     5   14   15 1    
     6    4    3 ar   
     7   15   16 1    
     8    5    4 ar   
     9    4    7 ar   
    10    5    6 ar   
    11    9    5 ar   
    12   16   17 1    
    13    7    8 ar   
    14    9   13 1    
    15    8   10 1    
    16    9    8 ar   
    17   10   11 ar   
    18   10   12 ar   
    19   11   20 ar   
    20   12   21 ar   
    21   17   18 1    
    22   18   19 1    
    23   14   19 1    
    24    1   33 1    
    25    2   34 1    
    26    3   35 1    
    27    6   36 1    
    28   14   37 1    
    29   15   38 1    
    30   15   39 1    
    31   16   40 1    
    32   16   41 1    
    33   17   42 1    
    34   21   20 ar   
    35   21   22 1    
    36   22   23 1    
    37   18   43 1    
    38   18   44 1    
    39   23   24 ar   
    40   23   28 ar   
    41   24   25 ar   
    42   19   45 1    
    43   25   26 ar   
    44   25   31 1    
    45   26   27 ar   
    46   19   46 1    
    47   28   27 ar   
    48   27   29 1    
    49   22   47 1    
    50   29   30 1    
    51   22   48 1    
    52   24   49 1    
    53   26   50 1    
    54   31   32 1    
    55   28   51 1    
    56   30   52 1    
    57   30   53 1    
    58   30   54 1    
    59   32   55 1    
    60   32   56 1    
    61   32   57 1    
@<TRIPOS>SUBSTRUCTURE
     1 UNNAMED     1 TEMP              0 ****  ****    0 ROOT 
@<TRIPOS>NORMAL
@<TRIPOS>FF_PBC
FORCE_FIELD_SETUP_FEATURE Force Field Setup information
v1.0  0 0.000000 0.000000 0.000000 0.000000 0.000000 0.000000 NONE 0 0 0 0 1 0 0 0 0 0 0 0 0
