#	Name:			2_14b
#	Creating user name:	Mariana
#	Creation time:		Wed Jan 11 13:50:16 2017

#	Modifying user name:	Mariana
#	Modification time:	Wed Jan 11 13:50:16 2017

@<TRIPOS>MOLECULE
2_14b
   53    57     1     1     0
SMALL
NO_CHARGES


@<TRIPOS>ATOM
      1 C          -5.7742   -2.5105    0.5804 C.ar      1 UNNAMED     0.0000 
      2 C1         -5.5717   -3.5559   -0.3322 C.ar      1 UNNAMED     0.0000 
      3 C2         -4.3363   -3.7230   -0.9700 C.ar      1 UNNAMED     0.0000 
      4 C3         -3.3217   -2.8141   -0.6688 C.ar      1 UNNAMED     0.0000 
      5 C4         -3.5221   -1.7735    0.2310 C.ar      1 UNNAMED     0.0000 
      6 C5         -4.7475   -1.6057    0.8771 C.ar      1 UNNAMED     0.0000 
      7 S          -1.7023   -2.8694   -1.3726 S.3       1 UNNAMED     0.0000 
      8 C6         -1.3136   -1.5271   -0.4728 C.ar      1 UNNAMED     0.0000 
      9 C7         -2.3467   -1.0247    0.3241 C.ar      1 UNNAMED     0.0000 
     10 C8          0.0298   -0.9125   -0.5300 C.ar      1 UNNAMED     0.0000 
     11 N           0.7439   -0.4296    0.5031 N.ar      1 UNNAMED     0.0000 
     12 N1          0.7782   -0.6950   -1.6138 N.ar      1 UNNAMED     0.0000 
     13 O          -2.2156    0.1122    1.1195 O.3       1 UNNAMED     0.0000 
     14 C9         -2.4537    2.4712    1.5469 C.3       1 UNNAMED     0.0000 
     15 H          -3.7679    1.2498    0.3146 H         1 UNNAMED     0.0000 
     16 C10        -1.9335    1.6674   -0.7931 C.3       1 UNNAMED     0.0000 
     17 C11        -2.8812    3.8374    0.9522 C.3       1 UNNAMED     0.0000 
     18 H1         -1.3831    2.5043    1.8063 H         1 UNNAMED     0.0000 
     19 H2         -3.0234    2.2624    2.4674 H         1 UNNAMED     0.0000 
     20 O1          1.8427    0.0961    0.0949 O.3       1 UNNAMED     0.0000 
     21 C12         1.8410   -0.0204   -1.1542 C.ar      1 UNNAMED     0.0000 
     22 C13         2.9227    0.5689   -2.0509 C.3       1 UNNAMED     0.0000 
     23 C14         2.8727    2.0941   -1.8996 C.ar      1 UNNAMED     0.0000 
     24 C15         3.9978    2.8243   -1.5032 C.ar      1 UNNAMED     0.0000 
     25 C16         3.9083    4.2087   -1.3335 C.ar      1 UNNAMED     0.0000 
     26 C17         2.6970    4.8720   -1.5531 C.ar      1 UNNAMED     0.0000 
     27 C18         1.5672    4.1503   -1.9602 C.ar      1 UNNAMED     0.0000 
     28 C19         1.6748    2.7706   -2.1538 C.ar      1 UNNAMED     0.0000 
     29 O2          0.3249    4.7610   -2.1809 O.3       1 UNNAMED     0.0000 
     30 C20         0.1106    6.1655   -1.9689 C.3       1 UNNAMED     0.0000 
     31 H3         -6.7400   -2.4005    1.0646 H         1 UNNAMED     0.0000 
     32 H4         -6.3824   -4.2453   -0.5475 H         1 UNNAMED     0.0000 
     33 H5         -4.1698   -4.5306   -1.6751 H         1 UNNAMED     0.0000 
     34 H6         -4.8957   -0.7991    1.5876 H         1 UNNAMED     0.0000 
     35 C21        -2.3923    3.0434   -1.3385 C.3       1 UNNAMED     0.0000 
     36 H7         -2.1219    0.8968   -1.5576 H         1 UNNAMED     0.0000 
     37 H8         -0.8522    1.7001   -0.5874 H         1 UNNAMED     0.0000 
     38 H9         -1.8353    3.2905   -2.2576 H         1 UNNAMED     0.0000 
     39 H10        -1.1121    4.2340   -0.1479 H         1 UNNAMED     0.0000 
     40 H11        -3.4628    3.0087   -1.5985 H         1 UNNAMED     0.0000 
     41 H12        -2.6611    4.6468    1.6685 H         1 UNNAMED     0.0000 
     42 H13        -3.9676    3.8418    0.7664 H         1 UNNAMED     0.0000 
     43 N2         -2.1740    4.0937   -0.3213 N.3       1 UNNAMED     0.0000 
     44 H14         3.8914    0.1480   -1.7445 H         1 UNNAMED     0.0000 
     45 H15         2.7245    0.2933   -3.0970 H         1 UNNAMED     0.0000 
     46 H16         4.9440    2.3241   -1.3232 H         1 UNNAMED     0.0000 
     47 H17         4.7852    4.7719   -1.0278 H         1 UNNAMED     0.0000 
     48 H18         2.6618    5.9438   -1.4014 H         1 UNNAMED     0.0000 
     49 H19         0.8075    2.2225   -2.5056 H         1 UNNAMED     0.0000 
     50 H20        -0.9460    6.3773   -2.1900 H         1 UNNAMED     0.0000 
     51 H21         0.3079    6.4433   -0.9222 H         1 UNNAMED     0.0000 
     52 H22         0.7353    6.7673   -2.6464 H         1 UNNAMED     0.0000 
     53 C22        -2.6872    1.3341    0.5217 C.3       1 UNNAMED     0.0000 
@<TRIPOS>BOND
     1    1    2 ar   
     2    6    1 ar   
     3    1   31 1    
     4    3    2 ar   
     5    2   32 1    
     6    4    3 ar   
     7    3   33 1    
     8    5    4 ar   
     9    7    4 ar   
    10    5    6 ar   
    11    9    5 ar   
    12    6   34 1    
    13    8    7 ar   
    14    9    8 ar   
    15    8   10 1    
    16   13    9 1    
    17   10   11 ar   
    18   10   12 ar   
    19   11   20 ar   
    20   12   21 ar   
    21   53   13 1    
    22   14   17 1    
    23   14   18 1    
    24   14   19 1    
    25   53   14 1    
    26   53   15 1    
    27   16   35 1    
    28   16   36 1    
    29   16   37 1    
    30   16   53 1    
    31   17   41 1    
    32   17   42 1    
    33   17   43 1    
    34   20   21 ar   
    35   21   22 1    
    36   22   23 1    
    37   22   44 1    
    38   22   45 1    
    39   23   24 ar   
    40   23   28 ar   
    41   24   25 ar   
    42   24   46 1    
    43   25   26 ar   
    44   25   47 1    
    45   26   27 ar   
    46   26   48 1    
    47   27   28 ar   
    48   27   29 1    
    49   28   49 1    
    50   29   30 1    
    51   30   50 1    
    52   30   51 1    
    53   30   52 1    
    54   35   38 1    
    55   35   40 1    
    56   35   43 1    
    57   43   39 1    
@<TRIPOS>SUBSTRUCTURE
     1 UNNAMED     1 TEMP              0 ****  ****    0 ROOT 
@<TRIPOS>NORMAL
@<TRIPOS>FF_PBC
FORCE_FIELD_SETUP_FEATURE Force Field Setup information
v1.0  0 0.000000 0.000000 0.000000 0.000000 0.000000 0.000000 NONE 0 0 0 0 1 0 0 0 0 0 0 0 0
