#	Name:			2_14a
#	Creating user name:	Mariana
#	Creation time:		Wed Jan 11 13:49:59 2017

#	Modifying user name:	Mariana
#	Modification time:	Wed Jan 11 13:49:59 2017

@<TRIPOS>MOLECULE
2_14a
   49    53     1     1     0
SMALL
NO_CHARGES


@<TRIPOS>ATOM
      1 C          -5.7692   -2.5091    0.5861 C.ar      1 UNNAMED     0.0000 
      2 C1         -5.5812   -3.5498   -0.3335 C.ar      1 UNNAMED     0.0000 
      3 C2         -4.3479   -3.7254   -0.9718 C.ar      1 UNNAMED     0.0000 
      4 C3         -3.3193   -2.8291   -0.6778 C.ar      1 UNNAMED     0.0000 
      5 C4         -3.5125   -1.7771    0.2174 C.ar      1 UNNAMED     0.0000 
      6 C5         -4.7302   -1.6188    0.8815 C.ar      1 UNNAMED     0.0000 
      7 S          -1.7689   -2.9323   -1.3646 S.3       1 UNNAMED     0.0000 
      8 C6         -1.3156   -1.5300   -0.4455 C.ar      1 UNNAMED     0.0000 
      9 C7         -2.3579   -0.9953    0.3123 C.ar      1 UNNAMED     0.0000 
     10 C8          0.0561   -0.9812   -0.4906 C.ar      1 UNNAMED     0.0000 
     11 N           0.7950   -0.5983    0.5689 N.ar      1 UNNAMED     0.0000 
     12 N1          0.7615   -0.7548   -1.6048 N.ar      1 UNNAMED     0.0000 
     13 O           1.9761   -0.0428    0.1634 O.3       1 UNNAMED     0.0000 
     14 C9          1.8792   -0.1247   -1.2211 C.ar      1 UNNAMED     0.0000 
     15 C10         2.9039    0.4481   -2.1889 C.3       1 UNNAMED     0.0000 
     16 C11         2.2700    1.6911   -2.8245 C.ar      1 UNNAMED     0.0000 
     17 C12         1.2898    1.5398   -3.8118 C.ar      1 UNNAMED     0.0000 
     18 C13         0.7087    2.6619   -4.4093 C.ar      1 UNNAMED     0.0000 
     19 C14         1.1024    3.9444   -4.0177 C.ar      1 UNNAMED     0.0000 
     20 C15         2.0717    4.1012   -3.0232 C.ar      1 UNNAMED     0.0000 
     21 C16         2.6524    2.9776   -2.4273 C.ar      1 UNNAMED     0.0000 
     22 O1         -2.2645    0.1726    1.0709 O.3       1 UNNAMED     0.0000 
     23 C17        -1.3919    1.7388   -0.6762 C.3       1 UNNAMED     0.0000 
     24 H          -2.3934    2.1942    1.1862 H         1 UNNAMED     0.0000 
     25 C18        -3.8779    1.5320   -0.2487 C.3       1 UNNAMED     0.0000 
     26 H1         -3.1595    4.1227   -2.3864 H         1 UNNAMED     0.0000 
     27 H2         -1.4466    0.9995   -1.4901 H         1 UNNAMED     0.0000 
     28 H3         -0.3884    1.7042   -0.2228 H         1 UNNAMED     0.0000 
     29 H4         -6.7307   -2.3922    1.0766 H         1 UNNAMED     0.0000 
     30 H5         -6.4000   -4.2284   -0.5528 H         1 UNNAMED     0.0000 
     31 H6         -4.1939   -4.5362   -1.6766 H         1 UNNAMED     0.0000 
     32 H7         -4.8649   -0.8288    1.6121 H         1 UNNAMED     0.0000 
     33 H8          3.8257    0.6865   -1.6382 H         1 UNNAMED     0.0000 
     34 H9          3.1343   -0.3048   -2.9568 H         1 UNNAMED     0.0000 
     35 H10         0.9736    0.5473   -4.1174 H         1 UNNAMED     0.0000 
     36 H11        -0.0493    2.5376   -5.1767 H         1 UNNAMED     0.0000 
     37 H12         0.6548    4.8169   -4.4840 H         1 UNNAMED     0.0000 
     38 H13         2.3734    5.0970   -2.7131 H         1 UNNAMED     0.0000 
     39 H14         3.4007    3.1128   -1.6529 H         1 UNNAMED     0.0000 
     40 C19        -4.0736    2.9273   -0.8939 C.3       1 UNNAMED     0.0000 
     41 H15        -4.6537    1.3698    0.5158 H         1 UNNAMED     0.0000 
     42 H16        -3.9856    0.7612   -1.0284 H         1 UNNAMED     0.0000 
     43 H17        -5.0501    2.9539   -1.4065 H         1 UNNAMED     0.0000 
     44 N2         -2.9951    3.1803   -1.8741 N.3       1 UNNAMED     0.0000 
     45 H18        -4.0733    3.7078   -0.1141 H         1 UNNAMED     0.0000 
     46 C20        -1.6354    3.1372   -1.2938 C.3       1 UNNAMED     0.0000 
     47 H19        -0.8899    3.3157   -2.0861 H         1 UNNAMED     0.0000 
     48 C21        -2.4709    1.4307    0.3944 C.3       1 UNNAMED     0.0000 
     49 H20        -1.5143    3.9204   -0.5265 H         1 UNNAMED     0.0000 
@<TRIPOS>BOND
     1    1    2 ar   
     2    6    1 ar   
     3    1   29 1    
     4    3    2 ar   
     5    2   30 1    
     6    4    3 ar   
     7    3   31 1    
     8    5    4 ar   
     9    7    4 ar   
    10    5    6 ar   
    11    9    5 ar   
    12    6   32 1    
    13    8    7 ar   
    14    9    8 ar   
    15    8   10 1    
    16   22    9 1    
    17   10   11 ar   
    18   10   12 ar   
    19   11   13 ar   
    20   12   14 ar   
    21   14   13 ar   
    22   14   15 1    
    23   15   16 1    
    24   15   33 1    
    25   15   34 1    
    26   16   17 ar   
    27   16   21 ar   
    28   17   18 ar   
    29   17   35 1    
    30   18   19 ar   
    31   18   36 1    
    32   20   19 ar   
    33   19   37 1    
    34   21   20 ar   
    35   20   38 1    
    36   21   39 1    
    37   48   22 1    
    38   23   27 1    
    39   23   28 1    
    40   23   46 1    
    41   48   23 1    
    42   48   24 1    
    43   40   25 1    
    44   25   41 1    
    45   25   42 1    
    46   25   48 1    
    47   44   26 1    
    48   40   43 1    
    49   40   44 1    
    50   40   45 1    
    51   44   46 1    
    52   46   47 1    
    53   46   49 1    
@<TRIPOS>SUBSTRUCTURE
     1 UNNAMED     1 TEMP              0 ****  ****    0 ROOT 
@<TRIPOS>NORMAL
@<TRIPOS>FF_PBC
FORCE_FIELD_SETUP_FEATURE Force Field Setup information
v1.0  0 0.000000 0.000000 0.000000 0.000000 0.000000 0.000000 NONE 0 0 0 0 1 0 0 0 0 0 0 0 0
