#	Name:			2_18
#	Creating user name:	Mariana
#	Creation time:		Wed Jan 11 13:50:56 2017

#	Modifying user name:	Mariana
#	Modification time:	Wed Jan 11 13:50:56 2017

@<TRIPOS>MOLECULE
2_18
   50    54     1     1     0
SMALL
NO_CHARGES


@<TRIPOS>ATOM
      1 C          -5.7687   -2.5148    0.5896 C.ar      1 UNNAMED     0.0000 
      2 C1         -5.5820   -3.5496   -0.3366 C.ar      1 UNNAMED     0.0000 
      3 C2         -4.3480   -3.7219   -0.9741 C.ar      1 UNNAMED     0.0000 
      4 C3         -3.3208   -2.8253   -0.6759 C.ar      1 UNNAMED     0.0000 
      5 C4         -3.5151   -1.7705    0.2158 C.ar      1 UNNAMED     0.0000 
      6 C5         -4.7303   -1.6251    0.8891 C.ar      1 UNNAMED     0.0000 
      7 S          -1.7599   -2.9340   -1.3557 S.3       1 UNNAMED     0.0000 
      8 C6         -1.3086   -1.5426   -0.4336 C.ar      1 UNNAMED     0.0000 
      9 C7         -2.3604   -0.9849    0.2944 C.ar      1 UNNAMED     0.0000 
     10 C8          0.0785   -1.0287   -0.4362 C.ar      1 UNNAMED     0.0000 
     11 N11         0.9143   -1.1436   -1.5055 N.3       1 UNNAMED     0.0000 
     12 N           0.6985   -0.3897    0.5654 N.ar      1 UNNAMED     0.0000 
     13 O          -2.2683    0.2140    1.0047 O.3       1 UNNAMED     0.0000 
     14 C9         -3.0155    1.3275    0.4717 C.3       1 UNNAMED     0.0000 
     15 C10        -2.5123    1.7778   -0.9274 C.3       1 UNNAMED     0.0000 
     16 C11        -1.0931    2.3944   -0.8440 C.3       1 UNNAMED     0.0000 
     17 N2         -1.0559    3.4842    0.1529 N.3       1 UNNAMED     0.0000 
     18 C12        -1.4578    3.0491    1.5069 C.3       1 UNNAMED     0.0000 
     19 C13        -2.9071    2.5036    1.4751 C.3       1 UNNAMED     0.0000 
     20 N3          1.9999   -0.3778   -1.2047 N.ar      1 UNNAMED     0.0000 
     21 C14         1.8705    0.0299    0.0723 C.ar      1 UNNAMED     0.0000 
     22 C15         2.8952    0.8544    0.8395 C.3       1 UNNAMED     0.0000 
     23 C16         2.3729    2.2909    0.9586 C.ar      1 UNNAMED     0.0000 
     24 C17         2.1849    3.0493   -0.2021 C.ar      1 UNNAMED     0.0000 
     25 C18         1.7162    4.3635   -0.1201 C.ar      1 UNNAMED     0.0000 
     26 C19         1.4285    4.9256    1.1267 C.ar      1 UNNAMED     0.0000 
     27 C20         1.6099    4.1708    2.2889 C.ar      1 UNNAMED     0.0000 
     28 C21         2.0785    2.8564    2.2047 C.ar      1 UNNAMED     0.0000 
     29 H1         -6.7297   -2.4025    1.0827 H         1 UNNAMED     0.0000 
     30 H2         -6.4014   -4.2259   -0.5609 H         1 UNNAMED     0.0000 
     31 H3         -4.1922   -4.5304   -1.6811 H         1 UNNAMED     0.0000 
     32 H4         -4.8682   -0.8481    1.6334 H         1 UNNAMED     0.0000 
     33 H5          0.4405   -0.8235   -2.4223 H         1 UNNAMED     0.0000 
     34 H6         -4.0798    1.0515    0.3865 H         1 UNNAMED     0.0000 
     35 H7         -3.1972    2.5456   -1.3233 H         1 UNNAMED     0.0000 
     36 H8         -2.5143    0.9276   -1.6283 H         1 UNNAMED     0.0000 
     37 H9         -0.7817    2.7794   -1.8293 H         1 UNNAMED     0.0000 
     38 H10        -0.3665    1.6271   -0.5472 H         1 UNNAMED     0.0000 
     39 H11        -1.6501    4.3294   -0.1751 H         1 UNNAMED     0.0000 
     40 H12        -1.3849    3.8993    2.2053 H         1 UNNAMED     0.0000 
     41 H13        -0.7674    2.2648    1.8587 H         1 UNNAMED     0.0000 
     42 H14        -3.2014    2.1586    2.4799 H         1 UNNAMED     0.0000 
     43 H15        -3.5899    3.3153    1.1748 H         1 UNNAMED     0.0000 
     44 H16         3.8467    0.8498    0.2878 H         1 UNNAMED     0.0000 
     45 H17         3.0509    0.3830    1.8206 H         1 UNNAMED     0.0000 
     46 H18         2.4008    2.6155   -1.1735 H         1 UNNAMED     0.0000 
     47 H19         1.5724    4.9461   -1.0246 H         1 UNNAMED     0.0000 
     48 H20         1.0624    5.9454    1.1917 H         1 UNNAMED     0.0000 
     49 H21         1.3847    4.6058    3.2577 H         1 UNNAMED     0.0000 
     50 H22         2.2099    2.2791    3.1140 H         1 UNNAMED     0.0000 
@<TRIPOS>BOND
     1    1    2 ar   
     2    6    1 ar   
     3    1   29 1    
     4    3    2 ar   
     5    2   30 1    
     6    4    3 ar   
     7    3   31 1    
     8    5    4 ar   
     9    7    4 ar   
    10    5    6 ar   
    11    9    5 ar   
    12    6   32 1    
    13    8    7 ar   
    14    8    9 ar   
    15   10    8 1    
    16    9   13 1    
    17   11   20 ar   
    18   10   12 ar   
    19   10   11 ar   
    20   11   33 1    
    21   12   21 ar   
    22   13   14 1    
    23   14   15 1    
    24   14   19 1    
    25   14   34 1    
    26   15   16 1    
    27   15   35 1    
    28   15   36 1    
    29   16   17 1    
    30   16   37 1    
    31   16   38 1    
    32   17   18 1    
    33   17   39 1    
    34   19   18 1    
    35   18   40 1    
    36   18   41 1    
    37   19   42 1    
    38   19   43 1    
    39   21   20 ar   
    40   21   22 1    
    41   22   23 1    
    42   22   44 1    
    43   22   45 1    
    44   23   24 ar   
    45   23   28 ar   
    46   24   25 ar   
    47   24   46 1    
    48   25   26 ar   
    49   25   47 1    
    50   26   27 ar   
    51   26   48 1    
    52   28   27 ar   
    53   27   49 1    
    54   28   50 1    
@<TRIPOS>SUBSTRUCTURE
     1 UNNAMED     1 TEMP              0 ****  ****    0 ROOT 
@<TRIPOS>NORMAL
@<TRIPOS>FF_PBC
FORCE_FIELD_SETUP_FEATURE Force Field Setup information
v1.0  0 0.000000 0.000000 0.000000 0.000000 0.000000 0.000000 NONE 0 0 0 0 1 0 0 0 0 0 0 0 0
