#	Name:			2_20b
#	Creating user name:	Mariana
#	Creation time:		Wed Jan 11 13:51:33 2017

#	Modifying user name:	Mariana
#	Modification time:	Wed Jan 11 13:51:33 2017

@<TRIPOS>MOLECULE
2_20b
   53    57     1     1     0
SMALL
NO_CHARGES


@<TRIPOS>ATOM
      1 C          -5.7717   -2.5123    0.5824 C.ar      1 UNNAMED     0.0000 
      2 C1         -5.5704   -3.5523   -0.3357 C.ar      1 UNNAMED     0.0000 
      3 C2         -4.3336   -3.7184   -0.9703 C.ar      1 UNNAMED     0.0000 
      4 C3         -3.3143   -2.8138   -0.6696 C.ar      1 UNNAMED     0.0000 
      5 C4         -3.5200   -1.7697    0.2281 C.ar      1 UNNAMED     0.0000 
      6 C5         -4.7427   -1.6123    0.8832 C.ar      1 UNNAMED     0.0000 
      7 S          -1.7729   -2.8926   -1.3426 S.3       1 UNNAMED     0.0000 
      8 C6         -1.3282   -1.5474   -0.4649 C.ar      1 UNNAMED     0.0000 
      9 C7         -2.3530   -1.0084    0.3155 C.ar      1 UNNAMED     0.0000 
     10 C8          0.0473   -1.0055   -0.5363 C.ar      1 UNNAMED     0.0000 
     11 N           0.5600   -0.0986    0.3156 N.ar      1 UNNAMED     0.0000 
     12 O           0.9210   -1.4052   -1.5081 O.3       1 UNNAMED     0.0000 
     13 O1         -2.2290    0.1490    1.0825 O.3       1 UNNAMED     0.0000 
     14 C9         -2.8509    1.3171    0.5153 C.3       1 UNNAMED     0.0000 
     15 C10        -2.2290    1.6896   -0.8604 C.3       1 UNNAMED     0.0000 
     16 C11        -2.4317    3.1968   -1.1844 C.3       1 UNNAMED     0.0000 
     17 N1         -3.6393    3.6841   -0.4870 N.3       1 UNNAMED     0.0000 
     18 C12        -3.5288    3.6965    0.9910 C.3       1 UNNAMED     0.0000 
     19 C13        -2.6758    2.4993    1.4953 C.3       1 UNNAMED     0.0000 
     20 N2          1.8065    0.1272   -0.0829 N.ar      1 UNNAMED     0.0000 
     21 C14         1.9995   -0.6615   -1.1551 C.ar      1 UNNAMED     0.0000 
     22 C15         3.3202   -0.7185   -1.9124 C.3       1 UNNAMED     0.0000 
     23 C16         3.7996   -2.1743   -1.9606 C.ar      1 UNNAMED     0.0000 
     24 C17         4.8320   -2.6199   -1.1267 C.ar      1 UNNAMED     0.0000 
     25 C18         5.2637   -3.9483   -1.1857 C.ar      1 UNNAMED     0.0000 
     26 C19         4.6619   -4.8399   -2.0781 C.ar      1 UNNAMED     0.0000 
     27 C20         3.6310   -4.4003   -2.9118 C.ar      1 UNNAMED     0.0000 
     28 C21         3.1975   -3.0739   -2.8474 C.ar      1 UNNAMED     0.0000 
     29 O2          3.0340   -5.2854   -3.8087 O.3       1 UNNAMED     0.0000 
     30 C22         3.6875   -5.3361   -5.0866 C.3       1 UNNAMED     0.0000 
     31 H          -6.7370   -2.4036    1.0678 H         1 UNNAMED     0.0000 
     32 H1         -6.3826   -4.2382   -0.5574 H         1 UNNAMED     0.0000 
     33 H2         -4.1704   -4.5269   -1.6758 H         1 UNNAMED     0.0000 
     34 H3         -4.8898   -0.8182    1.6077 H         1 UNNAMED     0.0000 
     35 H4         -3.9351    1.1464    0.3985 H         1 UNNAMED     0.0000 
     36 H5         -1.1485    1.4786   -0.8599 H         1 UNNAMED     0.0000 
     37 H6         -2.6959    1.0578   -1.6345 H         1 UNNAMED     0.0000 
     38 H7         -2.5213    3.3345   -2.2755 H         1 UNNAMED     0.0000 
     39 H8         -1.5668    3.7908   -0.8412 H         1 UNNAMED     0.0000 
     40 H9         -3.9413    4.6575   -0.8599 H         1 UNNAMED     0.0000 
     41 H10        -4.5574    3.6048    1.3777 H         1 UNNAMED     0.0000 
     42 H11        -3.1019    4.6418    1.3681 H         1 UNNAMED     0.0000 
     43 H12        -2.9852    2.2087    2.5129 H         1 UNNAMED     0.0000 
     44 H13        -1.6057    2.7620    1.5293 H         1 UNNAMED     0.0000 
     45 H14         3.1543   -0.3376   -2.9307 H         1 UNNAMED     0.0000 
     46 H15         4.0491   -0.0654   -1.4103 H         1 UNNAMED     0.0000 
     47 H16         5.3037   -1.9378   -0.4264 H         1 UNNAMED     0.0000 
     48 H17         6.0660   -4.2886   -0.5379 H         1 UNNAMED     0.0000 
     49 H18         4.9906   -5.8727   -2.1272 H         1 UNNAMED     0.0000 
     50 H19         2.3875   -2.7499   -3.4921 H         1 UNNAMED     0.0000 
     51 H20         3.1492   -6.0549   -5.7217 H         1 UNNAMED     0.0000 
     52 H21         3.6683   -4.3491   -5.5747 H         1 UNNAMED     0.0000 
     53 H22         4.7313   -5.6707   -4.9800 H         1 UNNAMED     0.0000 
@<TRIPOS>BOND
     1    1    2 ar   
     2    1    6 ar   
     3    1   31 1    
     4    2    3 ar   
     5    2   32 1    
     6    3    4 ar   
     7    3   33 1    
     8    4    5 ar   
     9    4    7 ar   
    10    5    6 ar   
    11    5    9 ar   
    12    6   34 1    
    13    7    8 ar   
    14    8    9 ar   
    15    8   10 1    
    16    9   13 1    
    17   10   11 ar   
    18   10   12 ar   
    19   11   20 ar   
    20   12   21 ar   
    21   13   14 1    
    22   14   15 1    
    23   14   19 1    
    24   14   35 1    
    25   15   16 1    
    26   15   36 1    
    27   15   37 1    
    28   16   17 1    
    29   16   38 1    
    30   16   39 1    
    31   17   18 1    
    32   17   40 1    
    33   18   19 1    
    34   18   41 1    
    35   18   42 1    
    36   19   43 1    
    37   19   44 1    
    38   20   21 ar   
    39   21   22 1    
    40   22   23 1    
    41   22   45 1    
    42   22   46 1    
    43   23   24 ar   
    44   23   28 ar   
    45   24   25 ar   
    46   24   47 1    
    47   25   26 ar   
    48   25   48 1    
    49   26   27 ar   
    50   26   49 1    
    51   27   28 ar   
    52   27   29 1    
    53   28   50 1    
    54   29   30 1    
    55   30   51 1    
    56   30   52 1    
    57   30   53 1    
@<TRIPOS>SUBSTRUCTURE
     1 UNNAMED     1 TEMP              0 ****  ****    0 ROOT 
@<TRIPOS>NORMAL
@<TRIPOS>FF_PBC
FORCE_FIELD_SETUP_FEATURE Force Field Setup information
v1.0  0 0.000000 0.000000 0.000000 0.000000 0.000000 0.000000 NONE 0 0 0 0 1 0 0 0 0 0 0 0 0
