#	Name:			2_20a
#	Creating user name:	Mariana
#	Creation time:		Wed Jan 11 13:51:12 2017

#	Modifying user name:	Mariana
#	Modification time:	Wed Jan 11 13:51:12 2017

@<TRIPOS>MOLECULE
2_20a
   49    53     1     1     0
SMALL
NO_CHARGES


@<TRIPOS>ATOM
      1 C          -5.7702   -2.5110    0.5829 C.ar      1 UNNAMED     0.0000 
      2 C1         -5.5701   -3.5512   -0.3348 C.ar      1 UNNAMED     0.0000 
      3 C2         -4.3338   -3.7182   -0.9700 C.ar      1 UNNAMED     0.0000 
      4 C3         -3.3106   -2.8161   -0.6728 C.ar      1 UNNAMED     0.0000 
      5 C4         -3.5174   -1.7709    0.2260 C.ar      1 UNNAMED     0.0000 
      6 C5         -4.7397   -1.6121    0.8816 C.ar      1 UNNAMED     0.0000 
      7 S          -1.8105   -2.9051   -1.3374 S.3       1 UNNAMED     0.0000 
      8 C6         -1.3374   -1.5499   -0.4636 C.ar      1 UNNAMED     0.0000 
      9 C7         -2.3546   -1.0051    0.3193 C.ar      1 UNNAMED     0.0000 
     10 C8          0.0424   -1.0212   -0.5484 C.ar      1 UNNAMED     0.0000 
     11 N           0.5670   -0.1173    0.2995 N.ar      1 UNNAMED     0.0000 
     12 O           0.8893   -1.4250   -1.5119 O.3       1 UNNAMED     0.0000 
     13 O1         -2.2296    0.1514    1.0872 O.3       1 UNNAMED     0.0000 
     14 C9         -2.8478    1.3206    0.5180 C.3       1 UNNAMED     0.0000 
     15 C10        -2.2187    1.6928   -0.8546 C.3       1 UNNAMED     0.0000 
     16 C11        -2.4177    3.2004   -1.1788 C.3       1 UNNAMED     0.0000 
     17 N1         -3.6282    3.6890   -0.4874 N.3       1 UNNAMED     0.0000 
     18 C12        -3.5253    3.7006    0.9912 C.3       1 UNNAMED     0.0000 
     19 C13        -2.6760    2.5023    1.4993 C.3       1 UNNAMED     0.0000 
     20 N2          1.8116    0.0975   -0.1103 N.ar      1 UNNAMED     0.0000 
     21 C14         1.9771   -0.6980   -1.1817 C.ar      1 UNNAMED     0.0000 
     22 C15         3.2843   -0.7745   -1.9602 C.3       1 UNNAMED     0.0000 
     23 C16         3.7913   -2.2211   -1.9268 C.ar      1 UNNAMED     0.0000 
     24 C17         4.8289   -2.5985   -1.0664 C.ar      1 UNNAMED     0.0000 
     25 C18         5.2919   -3.9176   -1.0562 C.ar      1 UNNAMED     0.0000 
     26 C19         4.7146   -4.8689   -1.9017 C.ar      1 UNNAMED     0.0000 
     27 C20         3.6711   -4.4995   -2.7549 C.ar      1 UNNAMED     0.0000 
     28 C21         3.2101   -3.1798   -2.7644 C.ar      1 UNNAMED     0.0000 
     29 H          -6.7350   -2.4009    1.0690 H         1 UNNAMED     0.0000 
     30 H1         -6.3828   -4.2367   -0.5555 H         1 UNNAMED     0.0000 
     31 H2         -4.1748   -4.5278   -1.6753 H         1 UNNAMED     0.0000 
     32 H3         -4.8855   -0.8173    1.6055 H         1 UNNAMED     0.0000 
     33 H4         -3.9316    1.1510    0.3961 H         1 UNNAMED     0.0000 
     34 H5         -1.1386    1.4801   -0.8487 H         1 UNNAMED     0.0000 
     35 H6         -2.6829    1.0621   -1.6312 H         1 UNNAMED     0.0000 
     36 H7         -2.5014    3.3388   -2.2703 H         1 UNNAMED     0.0000 
     37 H8         -1.5537    3.7931   -0.8308 H         1 UNNAMED     0.0000 
     38 H9         -3.9271    4.6628   -0.8614 H         1 UNNAMED     0.0000 
     39 H10        -4.5557    3.6100    1.3726 H         1 UNNAMED     0.0000 
     40 H11        -3.0992    4.6453    1.3707 H         1 UNNAMED     0.0000 
     41 H12        -2.9908    2.2116    2.5152 H         1 UNNAMED     0.0000 
     42 H13        -1.6059    2.7637    1.5387 H         1 UNNAMED     0.0000 
     43 H14         3.0924   -0.4599   -2.9963 H         1 UNNAMED     0.0000 
     44 H15         4.0092   -0.0782   -1.5134 H         1 UNNAMED     0.0000 
     45 H16         5.2804   -1.8705   -0.3999 H         1 UNNAMED     0.0000 
     46 H17         6.1004   -4.2040   -0.3903 H         1 UNNAMED     0.0000 
     47 H18         5.0754   -5.8930   -1.8953 H         1 UNNAMED     0.0000 
     48 H19         3.2184   -5.2377   -3.4099 H         1 UNNAMED     0.0000 
     49 H20         2.3950   -2.9025   -3.4257 H         1 UNNAMED     0.0000 
@<TRIPOS>BOND
     1    1    2 ar   
     2    1    6 ar   
     3    1   29 1    
     4    2    3 ar   
     5    2   30 1    
     6    3    4 ar   
     7    3   31 1    
     8    4    5 ar   
     9    4    7 ar   
    10    5    6 ar   
    11    5    9 ar   
    12    6   32 1    
    13    7    8 ar   
    14    8    9 ar   
    15    8   10 1    
    16    9   13 1    
    17   10   11 ar   
    18   10   12 ar   
    19   11   20 ar   
    20   12   21 ar   
    21   13   14 1    
    22   14   15 1    
    23   14   19 1    
    24   14   33 1    
    25   15   16 1    
    26   15   34 1    
    27   15   35 1    
    28   16   17 1    
    29   16   36 1    
    30   16   37 1    
    31   17   18 1    
    32   17   38 1    
    33   18   19 1    
    34   18   39 1    
    35   18   40 1    
    36   19   41 1    
    37   19   42 1    
    38   20   21 ar   
    39   21   22 1    
    40   22   23 1    
    41   22   43 1    
    42   22   44 1    
    43   23   24 ar   
    44   23   28 ar   
    45   24   25 ar   
    46   24   45 1    
    47   25   26 ar   
    48   25   46 1    
    49   26   27 ar   
    50   26   47 1    
    51   27   28 ar   
    52   27   48 1    
    53   28   49 1    
@<TRIPOS>SUBSTRUCTURE
     1 UNNAMED     1 TEMP              0 ****  ****    0 ROOT 
@<TRIPOS>NORMAL
@<TRIPOS>FF_PBC
FORCE_FIELD_SETUP_FEATURE Force Field Setup information
v1.0  0 0.000000 0.000000 0.000000 0.000000 0.000000 0.000000 NONE 0 0 0 0 1 0 0 0 0 0 0 0 0
