#	Name:			2_23e
#	Creating user name:	Mariana
#	Creation time:		Wed Jan 11 13:52:57 2017

#	Modifying user name:	Mariana
#	Modification time:	Wed Jan 11 13:52:57 2017

@<TRIPOS>MOLECULE
2_23e
   59    64     1     1     0
SMALL
NO_CHARGES


@<TRIPOS>ATOM
      1 C          -5.7709   -2.5054    0.5861 C.ar      1 UNNAMED     0.0000 
      2 C1         -5.5927   -3.5524   -0.3281 C.ar      1 UNNAMED     0.0000 
      3 C2         -4.3632   -3.7357   -0.9711 C.ar      1 UNNAMED     0.0000 
      4 C3         -3.3309   -2.8421   -0.6830 C.ar      1 UNNAMED     0.0000 
      5 C4         -3.5078   -1.7857    0.2115 C.ar      1 UNNAMED     0.0000 
      6 C5         -4.7269   -1.6178    0.8722 C.ar      1 UNNAMED     0.0000 
      7 S          -1.7158   -2.9536   -1.4075 S.3       1 UNNAMED     0.0000 
      8 C6         -1.2896   -1.4925   -0.4411 C.ar      1 UNNAMED     0.0000 
      9 C7         -2.3519   -1.0031    0.3220 C.ar      1 UNNAMED     0.0000 
     10 O          -2.2706    0.1446    1.1093 O.3       1 UNNAMED     0.0000 
     11 C11        -2.8708    1.3236    0.5399 C.3       1 UNNAMED     0.0000 
     12 C12        -2.1587    1.7631   -0.7713 C.3       1 UNNAMED     0.0000 
     13 C13        -2.3632    3.2789   -1.0492 C.3       1 UNNAMED     0.0000 
     14 N14        -3.6196    3.7237   -0.4133 N.3       1 UNNAMED     0.0000 
     15 C15        -3.5995    3.6814    1.0680 C.3       1 UNNAMED     0.0000 
     16 C16        -2.7819    2.4630    1.5792 C.3       1 UNNAMED     0.0000 
     17 C13         0.0655   -0.9012   -0.4853 C.ar      1 UNNAMED     0.0000 
     18 O1          0.5242    0.0753    0.5176 O.3       1 UNNAMED     0.0000 
     19 C14         1.7995    0.3456   -0.1138 C.ar      1 UNNAMED     0.0000 
     20 N1          2.0479   -0.4071   -1.2016 N.ar      1 UNNAMED     0.0000 
     21 N2          0.9874   -1.1780   -1.4256 N.ar      1 UNNAMED     0.0000 
     22 C15         2.7698    1.4004    0.4048 C.3       1 UNNAMED     0.0000 
     23 C16         1.9737    2.7096    0.5072 C.ar      1 UNNAMED     0.0000 
     24 C17         1.2472    3.0066    1.6664 C.ar      1 UNNAMED     0.0000 
     25 C18         0.5817    4.2297    1.7900 C.ar      1 UNNAMED     0.0000 
     26 C19         0.5965    5.1443    0.7340 C.ar      1 UNNAMED     0.0000 
     27 C20         1.2808    4.8333   -0.4440 C.ar      1 UNNAMED     0.0000 
     28 C21         1.9656    3.6198   -0.5563 C.ar      1 UNNAMED     0.0000 
     29 C22         3.4356    1.0410    1.7426 C.ar      1 UNNAMED     0.0000 
     30 C23         3.2806   -0.2161    2.3410 C.ar      1 UNNAMED     0.0000 
     31 C24         3.8839   -0.4917    3.5717 C.ar      1 UNNAMED     0.0000 
     32 C25         4.6557    0.4830    4.2097 C.ar      1 UNNAMED     0.0000 
     33 C26         4.8266    1.7338    3.6112 C.ar      1 UNNAMED     0.0000 
     34 C27         4.2211    2.0076    2.3816 C.ar      1 UNNAMED     0.0000 
     35 H1         -6.7301   -2.3810    1.0797 H         1 UNNAMED     0.0000 
     36 H2         -6.4152   -4.2290   -0.5395 H         1 UNNAMED     0.0000 
     37 H3         -4.2134   -4.5484   -1.6742 H         1 UNNAMED     0.0000 
     38 H4         -4.8617   -0.8197    1.5950 H         1 UNNAMED     0.0000 
     39 H5         -3.9416    1.1455    0.3402 H         1 UNNAMED     0.0000 
     40 H6         -2.5551    1.1549   -1.6013 H         1 UNNAMED     0.0000 
     41 H7         -1.0768    1.5766   -0.7037 H         1 UNNAMED     0.0000 
     42 H8         -2.3829    3.4591   -2.1374 H         1 UNNAMED     0.0000 
     43 H9         -1.5323    3.8696   -0.6273 H         1 UNNAMED     0.0000 
     44 H10        -3.9102    4.7076   -0.7670 H         1 UNNAMED     0.0000 
     45 H11        -4.6498    3.5808    1.3879 H         1 UNNAMED     0.0000 
     46 H12        -3.1928    4.6104    1.5038 H         1 UNNAMED     0.0000 
     47 H13        -3.1623    2.1275    2.5581 H         1 UNNAMED     0.0000 
     48 H14        -1.7194    2.7221    1.7018 H         1 UNNAMED     0.0000 
     49 H15         3.5784    1.4954   -0.3352 H         1 UNNAMED     0.0000 
     50 H16         1.1946    2.2880    2.4783 H         1 UNNAMED     0.0000 
     51 H17         0.0509    4.4690    2.7066 H         1 UNNAMED     0.0000 
     52 H18         0.0760    6.0925    0.8277 H         1 UNNAMED     0.0000 
     53 H19         1.2805    5.5356   -1.2722 H         1 UNNAMED     0.0000 
     54 H20         2.4909    3.3894   -1.4778 H         1 UNNAMED     0.0000 
     55 H21         2.6942   -0.9934    1.8626 H         1 UNNAMED     0.0000 
     56 H22         3.7531   -1.4657    4.0338 H         1 UNNAMED     0.0000 
     57 H23         5.1214    0.2688    5.1669 H         1 UNNAMED     0.0000 
     58 H24         5.4293    2.4923    4.1015 H         1 UNNAMED     0.0000 
     59 H25         4.3644    2.9813    1.9230 H         1 UNNAMED     0.0000 
@<TRIPOS>BOND
     1    1    2 ar   
     2    6    1 ar   
     3   10   11 1    
     4    3    2 ar   
     5   11   12 1    
     6    4    3 ar   
     7   12   13 1    
     8    5    4 ar   
     9    7    4 ar   
    10    5    6 ar   
    11    9    5 ar   
    12   13   14 1    
    13    8    7 ar   
    14    9    8 ar   
    15    8   17 1    
    16    9   10 1    
    17   14   15 1    
    18   15   16 1    
    19   11   16 1    
    20    1   35 1    
    21    2   36 1    
    22    3   37 1    
    23    6   38 1    
    24   11   39 1    
    25   12   40 1    
    26   12   41 1    
    27   13   42 1    
    28   13   43 1    
    29   14   44 1    
    30   15   45 1    
    31   15   46 1    
    32   16   47 1    
    33   16   48 1    
    34   17   18 ar   
    35   17   21 ar   
    36   18   19 ar   
    37   19   20 ar   
    38   19   22 1    
    39   21   20 ar   
    40   22   23 1    
    41   22   29 1    
    42   22   49 1    
    43   23   24 ar   
    44   23   28 ar   
    45   24   25 ar   
    46   24   50 1    
    47   25   26 ar   
    48   25   51 1    
    49   26   27 ar   
    50   26   52 1    
    51   28   27 ar   
    52   27   53 1    
    53   28   54 1    
    54   29   30 ar   
    55   29   34 ar   
    56   30   31 ar   
    57   30   55 1    
    58   31   32 ar   
    59   31   56 1    
    60   32   33 ar   
    61   32   57 1    
    62   34   33 ar   
    63   33   58 1    
    64   34   59 1    
@<TRIPOS>SUBSTRUCTURE
     1 UNNAMED     1 TEMP              0 ****  ****    0 ROOT 
@<TRIPOS>NORMAL
@<TRIPOS>FF_PBC
FORCE_FIELD_SETUP_FEATURE Force Field Setup information
v1.0  0 0.000000 0.000000 0.000000 0.000000 0.000000 0.000000 NONE 0 0 0 0 1 0 0 0 0 0 0 0 0
