#	Name:			2_23g
#	Creating user name:	Mariana
#	Creation time:		Wed Jan 11 13:53:42 2017

#	Modifying user name:	Mariana
#	Modification time:	Wed Jan 11 13:53:42 2017

@<TRIPOS>MOLECULE
2_23g
   50    54     1     1     0
SMALL
NO_CHARGES


@<TRIPOS>ATOM
      1 C          -5.7734   -2.5100    0.5822 C.ar      1 UNNAMED     0.0000 
      2 C1         -5.5758   -3.5552   -0.3315 C.ar      1 UNNAMED     0.0000 
      3 C2         -4.3418   -3.7253   -0.9709 C.ar      1 UNNAMED     0.0000 
      4 C3         -3.3246   -2.8187   -0.6717 C.ar      1 UNNAMED     0.0000 
      5 C4         -3.5198   -1.7761    0.2269 C.ar      1 UNNAMED     0.0000 
      6 C5         -4.7431   -1.6087    0.8771 C.ar      1 UNNAMED     0.0000 
      7 S          -1.7062   -2.8799   -1.3781 S.3       1 UNNAMED     0.0000 
      8 C6         -1.3061   -1.5219   -0.4645 C.ar      1 UNNAMED     0.0000 
      9 C7         -2.3495   -1.0185    0.3211 C.ar      1 UNNAMED     0.0000 
     10 O          -2.2442    0.1215    1.1157 O.3       1 UNNAMED     0.0000 
     11 C8         -2.2794    1.3705    0.4004 C.3       1 UNNAMED     0.0000 
     12 C9         -2.0278    2.5031    1.4254 C.3       1 UNNAMED     0.0000 
     13 C10        -2.1176    3.8854    0.7305 C.3       1 UNNAMED     0.0000 
     14 N          -3.4257    4.0375    0.0573 N.3       1 UNNAMED     0.0000 
     15 C11        -3.7062    2.9871   -0.9454 C.3       1 UNNAMED     0.0000 
     16 C12        -3.6518    1.5836   -0.2897 C.3       1 UNNAMED     0.0000 
     17 C13         0.0555   -0.9426   -0.5169 C.ar      1 UNNAMED     0.0000 
     18 O1          0.9752   -1.3405   -1.4735 O.3       1 UNNAMED     0.0000 
     19 C14         2.0091   -0.5700   -1.1215 C.ar      1 UNNAMED     0.0000 
     20 N1          1.7767    0.2363   -0.0691 N.ar      1 UNNAMED     0.0000 
     21 N2          0.5311   -0.0055    0.3227 N.ar      1 UNNAMED     0.0000 
     22 C15         3.3543   -0.5932   -1.8490 C.3       1 UNNAMED     0.0000 
     23 C16         3.3419   -1.7255   -2.8846 C.ar      1 UNNAMED     0.0000 
     24 C17         3.3577   -3.0531   -2.4427 C.ar      1 UNNAMED     0.0000 
     25 C18         3.3448   -4.1059   -3.3621 C.ar      1 UNNAMED     0.0000 
     26 C19         3.3161   -3.8352   -4.7327 C.ar      1 UNNAMED     0.0000 
     27 C20         3.2997   -2.5112   -5.1802 C.ar      1 UNNAMED     0.0000 
     28 C21         3.3116   -1.4596   -4.2589 C.ar      1 UNNAMED     0.0000 
     29 O2          4.4458   -0.8214   -0.9360 O.3       1 UNNAMED     0.0000 
     30 H          -6.7376   -2.3973    1.0686 H         1 UNNAMED     0.0000 
     31 H1         -6.3890   -4.2421   -0.5461 H         1 UNNAMED     0.0000 
     32 H2         -4.1782   -4.5338   -1.6759 H         1 UNNAMED     0.0000 
     33 H3         -4.8870   -0.8042    1.5907 H         1 UNNAMED     0.0000 
     34 H4         -1.4812    1.4050   -0.3604 H         1 UNNAMED     0.0000 
     35 H5         -2.7843    2.4421    2.2241 H         1 UNNAMED     0.0000 
     36 H6         -1.0331    2.3711    1.8826 H         1 UNNAMED     0.0000 
     37 H7         -1.3138    3.9832   -0.0174 H         1 UNNAMED     0.0000 
     38 H8         -1.9837    4.6905    1.4725 H         1 UNNAMED     0.0000 
     39 H9         -4.2261    4.0915    0.7873 H         1 UNNAMED     0.0000 
     40 H10        -2.9593    3.0539   -1.7533 H         1 UNNAMED     0.0000 
     41 H11        -4.6996    3.1570   -1.3939 H         1 UNNAMED     0.0000 
     42 H12        -3.8200    0.8113   -1.0578 H         1 UNNAMED     0.0000 
     43 H13        -4.4512    1.5026    0.4635 H         1 UNNAMED     0.0000 
     44 H14         3.4718    0.3859   -2.3406 H         1 UNNAMED     0.0000 
     45 H15         3.3788   -3.2688   -1.3789 H         1 UNNAMED     0.0000 
     46 H16         3.3568   -5.1335   -3.0114 H         1 UNNAMED     0.0000 
     47 H17         3.3065   -4.6517   -5.4484 H         1 UNNAMED     0.0000 
     48 H18         3.2774   -2.3000   -6.2451 H         1 UNNAMED     0.0000 
     49 H19         3.2960   -0.4369   -4.6218 H         1 UNNAMED     0.0000 
     50 H20         4.4710   -0.1787   -0.2330 H         1 UNNAMED     0.0000 
@<TRIPOS>BOND
     1    1    2 ar   
     2    1    6 ar   
     3    1   30 1    
     4    2    3 ar   
     5    2   31 1    
     6    3    4 ar   
     7    3   32 1    
     8    4    5 ar   
     9    4    7 ar   
    10    5    6 ar   
    11    5    9 ar   
    12    6   33 1    
    13    7    8 ar   
    14    8    9 ar   
    15    8   17 1    
    16    9   10 1    
    17   10   11 1    
    18   11   12 1    
    19   11   16 1    
    20   11   34 1    
    21   12   13 1    
    22   12   35 1    
    23   12   36 1    
    24   13   14 1    
    25   13   37 1    
    26   13   38 1    
    27   14   15 1    
    28   14   39 1    
    29   15   16 1    
    30   15   40 1    
    31   15   41 1    
    32   16   42 1    
    33   16   43 1    
    34   17   18 ar   
    35   17   21 ar   
    36   18   19 ar   
    37   19   20 ar   
    38   19   22 1    
    39   20   21 ar   
    40   22   23 1    
    41   22   29 1    
    42   22   44 1    
    43   23   24 ar   
    44   23   28 ar   
    45   24   25 ar   
    46   24   45 1    
    47   25   26 ar   
    48   25   46 1    
    49   26   27 ar   
    50   26   47 1    
    51   27   28 ar   
    52   27   48 1    
    53   28   49 1    
    54   29   50 1    
@<TRIPOS>SUBSTRUCTURE
     1 UNNAMED     1 TEMP              0 ****  ****    0 ROOT 
@<TRIPOS>NORMAL
@<TRIPOS>FF_PBC
FORCE_FIELD_SETUP_FEATURE Force Field Setup information
v1.0  0 0.000000 0.000000 0.000000 0.000000 0.000000 0.000000 NONE 0 0 0 0 1 0 0 0 0 0 0 0 0
