#	Name:			2_23d
#	Creating user name:	Mariana
#	Creation time:		Wed Jan 11 13:52:26 2017

#	Modifying user name:	Mariana
#	Modification time:	Wed Jan 11 13:52:26 2017

@<TRIPOS>MOLECULE
2_23d
   49    53     1     1     0
SMALL
NO_CHARGES


@<TRIPOS>ATOM
      1 C          -5.7700   -2.5108    0.5838 C.ar      1 UNNAMED     0.0000 
      2 C1         -5.5692   -3.5528   -0.3323 C.ar      1 UNNAMED     0.0000 
      3 C2         -4.3345   -3.7190   -0.9709 C.ar      1 UNNAMED     0.0000 
      4 C3         -3.3132   -2.8146   -0.6749 C.ar      1 UNNAMED     0.0000 
      5 C4         -3.5185   -1.7725    0.2259 C.ar      1 UNNAMED     0.0000 
      6 C5         -4.7407   -1.6092    0.8793 C.ar      1 UNNAMED     0.0000 
      7 S          -1.7935   -2.8924   -1.3506 S.3       1 UNNAMED     0.0000 
      8 C6         -1.3329   -1.5466   -0.4631 C.ar      1 UNNAMED     0.0000 
      9 C7         -2.3549   -1.0090    0.3209 C.ar      1 UNNAMED     0.0000 
     10 O          -2.2397    0.1439    1.0963 O.3       1 UNNAMED     0.0000 
     11 C8         -2.1782    1.3707    0.3442 C.3       1 UNNAMED     0.0000 
     12 C9         -1.9718    2.5477    1.3239 C.3       1 UNNAMED     0.0000 
     13 C10        -1.7061    3.8395    0.5018 C.3       1 UNNAMED     0.0000 
     14 N          -2.4172    3.7979   -0.7982 N.3       1 UNNAMED     0.0000 
     15 C11        -3.7195    3.1021   -0.7627 C.3       1 UNNAMED     0.0000 
     16 C12        -3.4816    1.5931   -0.4741 C.3       1 UNNAMED     0.0000 
     17 C13         0.0464   -1.0143   -0.5316 C.ar      1 UNNAMED     0.0000 
     18 O1          0.8834   -1.3278   -1.5706 O.3       1 UNNAMED     0.0000 
     19 C14         1.9970   -0.5857   -1.1822 C.ar      1 UNNAMED     0.0000 
     20 N1          1.8272    0.0783   -0.0237 N.ar      1 UNNAMED     0.0000 
     21 N2          0.5943   -0.1977    0.3874 N.ar      1 UNNAMED     0.0000 
     22 C15         3.2851   -0.5263   -2.0063 C.3       1 UNNAMED     0.0000 
     23 C16         2.8792   -0.4714   -3.4841 C.ar      1 UNNAMED     0.0000 
     24 F           4.0205    0.5710   -1.6708 F         1 UNNAMED     0.0000 
     25 C17         2.8052    0.7511   -4.1616 C.ar      1 UNNAMED     0.0000 
     26 C18         2.4398    0.7890   -5.5107 C.ar      1 UNNAMED     0.0000 
     27 C19         2.1419   -0.3963   -6.1888 C.ar      1 UNNAMED     0.0000 
     28 C20         2.2085   -1.6190   -5.5151 C.ar      1 UNNAMED     0.0000 
     29 C21         2.5743   -1.6547   -4.1663 C.ar      1 UNNAMED     0.0000 
     30 F1          4.0390   -1.6369   -1.7727 F         1 UNNAMED     0.0000 
     31 H          -6.7342   -2.4013    1.0710 H         1 UNNAMED     0.0000 
     32 H1         -6.3811   -4.2405   -0.5494 H         1 UNNAMED     0.0000 
     33 H2         -4.1747   -4.5281   -1.6766 H         1 UNNAMED     0.0000 
     34 H3         -4.8848   -0.8077    1.5965 H         1 UNNAMED     0.0000 
     35 H4         -1.3092    1.3643   -0.3363 H         1 UNNAMED     0.0000 
     36 H5         -2.8808    2.6497    1.9387 H         1 UNNAMED     0.0000 
     37 H6         -1.1259    2.3427    2.0009 H         1 UNNAMED     0.0000 
     38 H7         -0.6317    3.9092    0.2633 H         1 UNNAMED     0.0000 
     39 H8         -1.9843    4.7241    1.1002 H         1 UNNAMED     0.0000 
     40 H9         -2.5154    4.7941   -1.2172 H         1 UNNAMED     0.0000 
     41 H10        -4.2571    3.2180   -1.7192 H         1 UNNAMED     0.0000 
     42 H11        -4.3392    3.5596    0.0280 H         1 UNNAMED     0.0000 
     43 H12        -3.3996    1.0252   -1.4161 H         1 UNNAMED     0.0000 
     44 H13        -4.3489    1.2013    0.0802 H         1 UNNAMED     0.0000 
     45 H14         3.0298    1.6778   -3.6428 H         1 UNNAMED     0.0000 
     46 H15         2.3872    1.7403   -6.0320 H         1 UNNAMED     0.0000 
     47 H16         1.8592   -0.3673   -7.2369 H         1 UNNAMED     0.0000 
     48 H17         1.9758   -2.5414   -6.0390 H         1 UNNAMED     0.0000 
     49 H18         2.6193   -2.6073   -3.6472 H         1 UNNAMED     0.0000 
@<TRIPOS>BOND
     1    1    2 ar   
     2    1    6 ar   
     3    1   31 1    
     4    2    3 ar   
     5    2   32 1    
     6    3    4 ar   
     7    3   33 1    
     8    4    5 ar   
     9    4    7 ar   
    10    5    6 ar   
    11    5    9 ar   
    12    6   34 1    
    13    7    8 ar   
    14    8    9 ar   
    15    8   17 1    
    16    9   10 1    
    17   10   11 1    
    18   11   12 1    
    19   11   16 1    
    20   11   35 1    
    21   12   13 1    
    22   12   36 1    
    23   12   37 1    
    24   13   14 1    
    25   13   38 1    
    26   13   39 1    
    27   14   15 1    
    28   14   40 1    
    29   15   16 1    
    30   15   41 1    
    31   15   42 1    
    32   16   43 1    
    33   16   44 1    
    34   17   18 ar   
    35   17   21 ar   
    36   18   19 ar   
    37   19   20 ar   
    38   19   22 1    
    39   20   21 ar   
    40   22   23 1    
    41   22   24 1    
    42   22   30 1    
    43   23   25 ar   
    44   23   29 ar   
    45   25   26 ar   
    46   25   45 1    
    47   26   27 ar   
    48   26   46 1    
    49   27   28 ar   
    50   27   47 1    
    51   28   29 ar   
    52   28   48 1    
    53   29   49 1    
@<TRIPOS>SUBSTRUCTURE
     1 UNNAMED     1 TEMP              0 ****  ****    0 ROOT 
@<TRIPOS>NORMAL
@<TRIPOS>FF_PBC
FORCE_FIELD_SETUP_FEATURE Force Field Setup information
v1.0  0 0.000000 0.000000 0.000000 0.000000 0.000000 0.000000 NONE 0 0 0 0 1 0 0 0 0 0 0 0 0
