#	Name:			2_23f
#	Creating user name:	Mariana
#	Creation time:		Wed Jan 11 13:53:23 2017

#	Modifying user name:	Mariana
#	Modification time:	Wed Jan 11 13:53:23 2017

@<TRIPOS>MOLECULE
2_23f
   53    57     1     1     0
SMALL
NO_CHARGES


@<TRIPOS>ATOM
      1 C          -5.7716   -2.5093    0.5789 C.ar      1 UNNAMED     0.0000 
      2 C1         -5.5633   -3.5523   -0.3344 C.ar      1 UNNAMED     0.0000 
      3 C2         -4.3255   -3.7165   -0.9681 C.ar      1 UNNAMED     0.0000 
      4 C3         -3.3067   -2.8101   -0.6692 C.ar      1 UNNAMED     0.0000 
      5 C4         -3.5203   -1.7707    0.2331 C.ar      1 UNNAMED     0.0000 
      6 C5         -4.7463   -1.6044    0.8783 C.ar      1 UNNAMED     0.0000 
      7 S          -1.8032   -2.8828   -1.3347 S.3       1 UNNAMED     0.0000 
      8 C6         -1.3501   -1.5518   -0.4807 C.ar      1 UNNAMED     0.0000 
      9 C7         -2.3502   -1.0195    0.3307 C.ar      1 UNNAMED     0.0000 
     10 O          -2.1984    0.1139    1.1278 O.3       1 UNNAMED     0.0000 
     11 C8         -2.6988    1.3392    0.5614 C.3       1 UNNAMED     0.0000 
     12 C9         -1.9595    1.7104   -0.7500 C.3       1 UNNAMED     0.0000 
     13 C10        -2.4379    3.0889   -1.2674 C.3       1 UNNAMED     0.0000 
     14 N          -2.2340    4.1108   -0.2182 N.3       1 UNNAMED     0.0000 
     15 C11        -2.9432    3.8244    1.0472 C.3       1 UNNAMED     0.0000 
     16 C12        -2.4709    2.4596    1.6054 C.3       1 UNNAMED     0.0000 
     17 C13         0.0071   -0.9774   -0.5869 C.ar      1 UNNAMED     0.0000 
     18 O1          0.4347   -0.1601   -1.7857 O.3       1 UNNAMED     0.0000 
     19 C14         1.6697    0.2254   -1.2603 C.ar      1 UNNAMED     0.0000 
     20 N1          1.9960   -0.3515   -0.0867 N.ar      1 UNNAMED     0.0000 
     21 N2          0.9751   -1.0904    0.3385 N.ar      1 UNNAMED     0.0000 
     22 C15         2.5766    1.2413   -1.9522 C.3       1 UNNAMED     0.0000 
     23 C16         1.8276    2.5798   -1.8855 C.ar      1 UNNAMED     0.0000 
     24 C17         1.5291    3.1336   -0.6345 C.ar      1 UNNAMED     0.0000 
     25 C18         0.8325    4.3417   -0.5402 C.ar      1 UNNAMED     0.0000 
     26 C19         0.4495    5.0186   -1.7009 C.ar      1 UNNAMED     0.0000 
     27 C20         0.7480    4.4744   -2.9528 C.ar      1 UNNAMED     0.0000 
     28 C21         1.4296    3.2571   -3.0443 C.ar      1 UNNAMED     0.0000 
     29 O2          2.8991    0.8675   -3.3110 O.3       1 UNNAMED     0.0000 
     30 C22         3.5755   -0.4009   -3.4144 C.3       1 UNNAMED     0.0000 
     31 H          -6.7387   -2.4013    1.0606 H         1 UNNAMED     0.0000 
     32 H1         -6.3721   -4.2429   -0.5534 H         1 UNNAMED     0.0000 
     33 H2         -4.1622   -4.5260   -1.6725 H         1 UNNAMED     0.0000 
     34 H3         -4.8964   -0.7998    1.5906 H         1 UNNAMED     0.0000 
     35 H4         -3.7801    1.2447    0.3630 H         1 UNNAMED     0.0000 
     36 H5         -0.8798    1.7600   -0.5448 H         1 UNNAMED     0.0000 
     37 H6         -2.1357    0.9486   -1.5264 H         1 UNNAMED     0.0000 
     38 H7         -3.5025    3.0365   -1.5514 H         1 UNNAMED     0.0000 
     39 H8         -1.8555    3.3572   -2.1648 H         1 UNNAMED     0.0000 
     40 H9         -2.4999    5.0950   -0.5893 H         1 UNNAMED     0.0000 
     41 H10        -4.0341    3.8094    0.8837 H         1 UNNAMED     0.0000 
     42 H11        -2.7145    4.6137    1.7830 H         1 UNNAMED     0.0000 
     43 H12        -3.0143    2.2181    2.5336 H         1 UNNAMED     0.0000 
     44 H13        -1.3954    2.5182    1.8398 H         1 UNNAMED     0.0000 
     45 H14         3.5010    1.3460   -1.3629 H         1 UNNAMED     0.0000 
     46 H15         1.8340    2.6231    0.2739 H         1 UNNAMED     0.0000 
     47 H16         0.5871    4.7535    0.4340 H         1 UNNAMED     0.0000 
     48 H17        -0.0802    5.9635   -1.6298 H         1 UNNAMED     0.0000 
     49 H18         0.4486    4.9979   -3.8557 H         1 UNNAMED     0.0000 
     50 H19         1.6442    2.8449   -4.0246 H         1 UNNAMED     0.0000 
     51 H20         2.9453   -1.2298   -3.0558 H         1 UNNAMED     0.0000 
     52 H21         3.7968   -0.5742   -4.4779 H         1 UNNAMED     0.0000 
     53 H22         4.5260   -0.3979   -2.8586 H         1 UNNAMED     0.0000 
@<TRIPOS>BOND
     1    1    2 ar   
     2    1    6 ar   
     3    1   31 1    
     4    2    3 ar   
     5    2   32 1    
     6    3    4 ar   
     7    3   33 1    
     8    4    5 ar   
     9    4    7 ar   
    10    5    6 ar   
    11    5    9 ar   
    12    6   34 1    
    13    7    8 ar   
    14    8    9 ar   
    15    8   17 1    
    16    9   10 1    
    17   10   11 1    
    18   11   12 1    
    19   11   16 1    
    20   11   35 1    
    21   12   13 1    
    22   12   36 1    
    23   12   37 1    
    24   13   14 1    
    25   13   38 1    
    26   13   39 1    
    27   14   15 1    
    28   14   40 1    
    29   15   16 1    
    30   15   41 1    
    31   15   42 1    
    32   16   43 1    
    33   16   44 1    
    34   17   18 ar   
    35   17   21 ar   
    36   18   19 ar   
    37   19   20 ar   
    38   19   22 1    
    39   20   21 ar   
    40   22   23 1    
    41   22   29 1    
    42   22   45 1    
    43   23   24 ar   
    44   23   28 ar   
    45   24   25 ar   
    46   24   46 1    
    47   25   26 ar   
    48   25   47 1    
    49   26   27 ar   
    50   26   48 1    
    51   27   28 ar   
    52   27   49 1    
    53   28   50 1    
    54   29   30 1    
    55   30   51 1    
    56   30   52 1    
    57   30   53 1    
@<TRIPOS>SUBSTRUCTURE
     1 UNNAMED     1 TEMP              0 ****  ****    0 ROOT 
@<TRIPOS>NORMAL
@<TRIPOS>FF_PBC
FORCE_FIELD_SETUP_FEATURE Force Field Setup information
v1.0  0 0.000000 0.000000 0.000000 0.000000 0.000000 0.000000 NONE 0 0 0 0 1 0 0 0 0 0 0 0 0
