#	Name:			2_23c
#	Creating user name:	Mariana
#	Creation time:		Wed Jan 11 13:52:43 2017

#	Modifying user name:	Mariana
#	Modification time:	Wed Jan 11 13:52:43 2017

@<TRIPOS>MOLECULE
2_23c
   53    58     1     1     0
SMALL
NO_CHARGES


@<TRIPOS>ATOM
      1 C          -5.7693   -2.5058    0.5827 C.ar      1 UNNAMED     0.0000 
      2 C1         -5.5751   -3.5512   -0.3302 C.ar      1 UNNAMED     0.0000 
      3 C2         -4.3417   -3.7242   -0.9691 C.ar      1 UNNAMED     0.0000 
      4 C3         -3.3124   -2.8262   -0.6797 C.ar      1 UNNAMED     0.0000 
      5 C4         -3.5118   -1.7787    0.2213 C.ar      1 UNNAMED     0.0000 
      6 C5         -4.7343   -1.6098    0.8736 C.ar      1 UNNAMED     0.0000 
      7 S          -1.8241   -2.9259   -1.3565 S.3       1 UNNAMED     0.0000 
      8 C6         -1.3359   -1.5307   -0.4620 C.ar      1 UNNAMED     0.0000 
      9 C7         -2.3534   -1.0080    0.3321 C.ar      1 UNNAMED     0.0000 
     10 O          -2.2336    0.1322    1.1238 O.3       1 UNNAMED     0.0000 
     11 C11        -2.7719    1.3351    0.5445 C.3       1 UNNAMED     0.0000 
     12 C12        -2.0248    1.7347   -0.7549 C.3       1 UNNAMED     0.0000 
     13 C13        -2.5620    3.0872   -1.2851 C.3       1 UNNAMED     0.0000 
     14 N14        -2.4263    4.1200   -0.2352 N.3       1 UNNAMED     0.0000 
     15 C15        -3.1450    3.8046    1.0182 C.3       1 UNNAMED     0.0000 
     16 C16        -2.6179    2.4657    1.5905 C.3       1 UNNAMED     0.0000 
     17 C13         0.0325   -0.9777   -0.5625 C.ar      1 UNNAMED     0.0000 
     18 O1          0.8393   -1.2995   -1.5796 O.3       1 UNNAMED     0.0000 
     19 C14         1.9481   -0.5107   -1.2343 C.ar      1 UNNAMED     0.0000 
     20 N1          1.7856    0.1849   -0.0957 N.ar      1 UNNAMED     0.0000 
     21 N2          0.5666   -0.1245    0.3320 N.ar      1 UNNAMED     0.0000 
     22 C15         3.2236   -0.4514   -2.0746 C.3       1 UNNAMED     0.0000 
     23 C16         4.3842   -1.4274   -1.7854 C.ar      1 UNNAMED     0.0000 
     24 C17         2.9680   -0.0496   -3.5456 C.3       1 UNNAMED     0.0000 
     25 C18         3.5744    0.9742   -2.5595 C.3       1 UNNAMED     0.0000 
     26 C19         5.5827   -1.4299   -2.5134 C.ar      1 UNNAMED     0.0000 
     27 C20         6.6037   -2.3356   -2.2094 C.ar      1 UNNAMED     0.0000 
     28 C21         6.4419   -3.2549   -1.1706 C.ar      1 UNNAMED     0.0000 
     29 C22         5.2528   -3.2630   -0.4383 C.ar      1 UNNAMED     0.0000 
     30 C23         4.2351   -2.3555   -0.7463 C.ar      1 UNNAMED     0.0000 
     31 H1         -6.7325   -2.3894    1.0706 H         1 UNNAMED     0.0000 
     32 H2         -6.3904   -4.2358   -0.5443 H         1 UNNAMED     0.0000 
     33 H3         -4.1893   -4.5369   -1.6724 H         1 UNNAMED     0.0000 
     34 H4         -4.8764   -0.8063    1.5889 H         1 UNNAMED     0.0000 
     35 H5         -3.8443    1.1974    0.3245 H         1 UNNAMED     0.0000 
     36 H6         -2.1512    0.9610   -1.5294 H         1 UNNAMED     0.0000 
     37 H7         -0.9500    1.8391   -0.5380 H         1 UNNAMED     0.0000 
     38 H8         -3.6175    2.9826   -1.5885 H         1 UNNAMED     0.0000 
     39 H9         -1.9760    3.3854   -2.1712 H         1 UNNAMED     0.0000 
     40 H10        -2.7296    5.0905   -0.6142 H         1 UNNAMED     0.0000 
     41 H11        -4.2308    3.7369    0.8344 H         1 UNNAMED     0.0000 
     42 H12        -2.9688    4.6059    1.7556 H         1 UNNAMED     0.0000 
     43 H13        -3.1682    2.1999    2.5081 H         1 UNNAMED     0.0000 
     44 H14        -1.5514    2.5745    1.8465 H         1 UNNAMED     0.0000 
     45 H15         1.9224    0.1313   -3.8403 H         1 UNNAMED     0.0000 
     46 H16         3.6289   -0.4516   -4.3269 H         1 UNNAMED     0.0000 
     47 H17         4.6320    1.2423   -2.6934 H         1 UNNAMED     0.0000 
     48 H18         2.9039    1.7885   -2.2426 H         1 UNNAMED     0.0000 
     49 H19         5.7477   -0.7337   -3.3266 H         1 UNNAMED     0.0000 
     50 H20         7.5265   -2.3251   -2.7822 H         1 UNNAMED     0.0000 
     51 H21         7.2346   -3.9583   -0.9340 H         1 UNNAMED     0.0000 
     52 H22         5.1194   -3.9750    0.3709 H         1 UNNAMED     0.0000 
     53 H23         3.3220   -2.3847   -0.1610 H         1 UNNAMED     0.0000 
@<TRIPOS>BOND
     1    1    2 ar   
     2    6    1 ar   
     3   10   11 1    
     4    3    2 ar   
     5   11   12 1    
     6    4    3 ar   
     7   12   13 1    
     8    5    4 ar   
     9    7    4 ar   
    10    5    6 ar   
    11    9    5 ar   
    12   13   14 1    
    13    8    7 ar   
    14    9    8 ar   
    15    8   17 1    
    16    9   10 1    
    17   14   15 1    
    18   15   16 1    
    19   11   16 1    
    20    1   31 1    
    21    2   32 1    
    22    3   33 1    
    23    6   34 1    
    24   11   35 1    
    25   12   36 1    
    26   12   37 1    
    27   13   38 1    
    28   13   39 1    
    29   14   40 1    
    30   15   41 1    
    31   15   42 1    
    32   16   43 1    
    33   16   44 1    
    34   17   18 ar   
    35   17   21 ar   
    36   18   19 ar   
    37   19   20 ar   
    38   19   22 1    
    39   21   20 ar   
    40   22   23 1    
    41   22   24 1    
    42   22   25 1    
    43   23   26 ar   
    44   23   30 ar   
    45   25   24 1    
    46   24   45 1    
    47   24   46 1    
    48   25   47 1    
    49   25   48 1    
    50   26   27 ar   
    51   26   49 1    
    52   27   28 ar   
    53   27   50 1    
    54   28   29 ar   
    55   28   51 1    
    56   30   29 ar   
    57   29   52 1    
    58   30   53 1    
@<TRIPOS>SUBSTRUCTURE
     1 UNNAMED     1 TEMP              0 ****  ****    0 ROOT 
@<TRIPOS>NORMAL
@<TRIPOS>FF_PBC
FORCE_FIELD_SETUP_FEATURE Force Field Setup information
v1.0  0 0.000000 0.000000 0.000000 0.000000 0.000000 0.000000 NONE 0 0 0 0 1 0 0 0 0 0 0 0 0
