#	Name:			2_23a
#	Creating user name:	Mariana
#	Creation time:		Wed Jan 11 13:51:53 2017

#	Modifying user name:	Mariana
#	Modification time:	Wed Jan 11 13:51:53 2017

@<TRIPOS>MOLECULE
2_23a
   52    56     1     1     0
SMALL
NO_CHARGES


@<TRIPOS>ATOM
      1 C          -5.7694   -2.5079    0.5857 C.ar      1 UNNAMED     0.0000 
      2 C1         -5.5792   -3.5530   -0.3286 C.ar      1 UNNAMED     0.0000 
      3 C2         -4.3477   -3.7264   -0.9714 C.ar      1 UNNAMED     0.0000 
      4 C3         -3.3204   -2.8270   -0.6815 C.ar      1 UNNAMED     0.0000 
      5 C4         -3.5128   -1.7795    0.2181 C.ar      1 UNNAMED     0.0000 
      6 C5         -4.7334   -1.6119    0.8742 C.ar      1 UNNAMED     0.0000 
      7 S          -1.7763   -2.9193   -1.3778 S.3       1 UNNAMED     0.0000 
      8 C6         -1.3161   -1.5234   -0.4518 C.ar      1 UNNAMED     0.0000 
      9 C7         -2.3548   -1.0055    0.3239 C.ar      1 UNNAMED     0.0000 
     10 O          -2.2620    0.1442    1.1073 O.3       1 UNNAMED     0.0000 
     11 C8         -2.1905    1.3761    0.3648 C.3       1 UNNAMED     0.0000 
     12 C9         -2.0093    2.5461    1.3578 C.3       1 UNNAMED     0.0000 
     13 C10        -1.7365    3.8465    0.5520 C.3       1 UNNAMED     0.0000 
     14 N          -2.4282    3.8158   -0.7588 N.3       1 UNNAMED     0.0000 
     15 C11        -3.7247    3.1083   -0.7522 C.3       1 UNNAMED     0.0000 
     16 C12        -3.4785    1.5980   -0.4776 C.3       1 UNNAMED     0.0000 
     17 C13         0.0593   -0.9800   -0.5113 C.ar      1 UNNAMED     0.0000 
     18 O1          0.9119   -1.2980   -1.5371 O.3       1 UNNAMED     0.0000 
     19 C14         1.9861   -0.5959   -1.1617 C.ar      1 UNNAMED     0.0000 
     20 N1          1.8292    0.1041   -0.0232 N.ar      1 UNNAMED     0.0000 
     21 N2          0.5968   -0.1498    0.4005 N.ar      1 UNNAMED     0.0000 
     22 C15         3.2867   -0.5987   -1.9641 C.3       1 UNNAMED     0.0000 
     23 C16         3.7732   -2.0424   -2.1630 C.ar      1 UNNAMED     0.0000 
     24 C17         4.3878    0.2308   -1.2574 C.3       1 UNNAMED     0.0000 
     25 C18         3.7326   -2.9507   -1.0984 C.ar      1 UNNAMED     0.0000 
     26 C19         4.1596   -4.2698   -1.2766 C.ar      1 UNNAMED     0.0000 
     27 C20         4.6376   -4.6881   -2.5213 C.ar      1 UNNAMED     0.0000 
     28 C21         4.6899   -3.7836   -3.5853 C.ar      1 UNNAMED     0.0000 
     29 C22         4.2618   -2.4650   -3.4051 C.ar      1 UNNAMED     0.0000 
     30 H          -6.7308   -2.3914    1.0769 H         1 UNNAMED     0.0000 
     31 H1         -6.3957   -4.2368   -0.5409 H         1 UNNAMED     0.0000 
     32 H2         -4.1942   -4.5374   -1.6760 H         1 UNNAMED     0.0000 
     33 H3         -4.8719   -0.8085    1.5907 H         1 UNNAMED     0.0000 
     34 H4         -1.3080    1.3798   -0.2980 H         1 UNNAMED     0.0000 
     35 H5         -2.9300    2.6375    1.9569 H         1 UNNAMED     0.0000 
     36 H6         -1.1745    2.3400    2.0481 H         1 UNNAMED     0.0000 
     37 H7         -0.6590    3.9217    0.3298 H         1 UNNAMED     0.0000 
     38 H8         -2.0260    4.7243    1.1552 H         1 UNNAMED     0.0000 
     39 H9         -2.5285    4.8163   -1.1668 H         1 UNNAMED     0.0000 
     40 H10        -4.2477    3.2309   -1.7159 H         1 UNNAMED     0.0000 
     41 H11        -4.3609    3.5511    0.0337 H         1 UNNAMED     0.0000 
     42 H12        -3.3718    1.0430   -1.4247 H         1 UNNAMED     0.0000 
     43 H13        -4.3539    1.1915    0.0532 H         1 UNNAMED     0.0000 
     44 H14         3.0420   -0.1367   -2.9335 H         1 UNNAMED     0.0000 
     45 H15         5.3088    0.2266   -1.8609 H         1 UNNAMED     0.0000 
     46 H16         4.0568    1.2730   -1.1253 H         1 UNNAMED     0.0000 
     47 H17         4.6118   -0.1967   -0.2678 H         1 UNNAMED     0.0000 
     48 H18         3.3695   -2.6369   -0.1246 H         1 UNNAMED     0.0000 
     49 H19         4.1198   -4.9699   -0.4477 H         1 UNNAMED     0.0000 
     50 H20         4.9679   -5.7130   -2.6612 H         1 UNNAMED     0.0000 
     51 H21         5.0637   -4.1059   -4.5525 H         1 UNNAMED     0.0000 
     52 H22         4.3132   -1.7719   -4.2386 H         1 UNNAMED     0.0000 
@<TRIPOS>BOND
     1    1    2 ar   
     2    1    6 ar   
     3    1   30 1    
     4    2    3 ar   
     5    2   31 1    
     6    3    4 ar   
     7    3   32 1    
     8    4    5 ar   
     9    4    7 ar   
    10    5    6 ar   
    11    5    9 ar   
    12    6   33 1    
    13    7    8 ar   
    14    8    9 ar   
    15    8   17 1    
    16    9   10 1    
    17   10   11 1    
    18   11   12 1    
    19   11   16 1    
    20   11   34 1    
    21   12   13 1    
    22   12   35 1    
    23   12   36 1    
    24   13   14 1    
    25   13   37 1    
    26   13   38 1    
    27   14   15 1    
    28   14   39 1    
    29   15   16 1    
    30   15   40 1    
    31   15   41 1    
    32   16   42 1    
    33   16   43 1    
    34   17   18 ar   
    35   17   21 ar   
    36   18   19 ar   
    37   19   20 ar   
    38   19   22 1    
    39   20   21 ar   
    40   22   23 1    
    41   22   24 1    
    42   22   44 1    
    43   23   25 ar   
    44   23   29 ar   
    45   24   45 1    
    46   24   46 1    
    47   24   47 1    
    48   25   26 ar   
    49   25   48 1    
    50   26   27 ar   
    51   26   49 1    
    52   27   28 ar   
    53   27   50 1    
    54   28   29 ar   
    55   28   51 1    
    56   29   52 1    
@<TRIPOS>SUBSTRUCTURE
     1 UNNAMED     1 TEMP              0 ****  ****    0 ROOT 
@<TRIPOS>NORMAL
@<TRIPOS>FF_PBC
FORCE_FIELD_SETUP_FEATURE Force Field Setup information
v1.0  0 0.000000 0.000000 0.000000 0.000000 0.000000 0.000000 NONE 0 0 0 0 1 0 0 0 0 0 0 0 0
