#	Name:			2_23b
#	Creating user name:	Mariana
#	Creation time:		Wed Jan 11 13:52:10 2017

#	Modifying user name:	Mariana
#	Modification time:	Wed Jan 11 13:52:10 2017

@<TRIPOS>MOLECULE
2_23b
   55    59     1     1     0
SMALL
NO_CHARGES


@<TRIPOS>ATOM
      1 C          -5.7711   -2.5090    0.5839 C.ar      1 UNNAMED     0.0000 
      2 C1         -5.5784   -3.5528   -0.3316 C.ar      1 UNNAMED     0.0000 
      3 C2         -4.3451   -3.7254   -0.9706 C.ar      1 UNNAMED     0.0000 
      4 C3         -3.3203   -2.8249   -0.6764 C.ar      1 UNNAMED     0.0000 
      5 C4         -3.5150   -1.7766    0.2216 C.ar      1 UNNAMED     0.0000 
      6 C5         -4.7366   -1.6127    0.8774 C.ar      1 UNNAMED     0.0000 
      7 S          -1.7529   -2.9153   -1.3729 S.3       1 UNNAMED     0.0000 
      8 C6         -1.3152   -1.5251   -0.4562 C.ar      1 UNNAMED     0.0000 
      9 C7         -2.3522   -1.0080    0.3206 C.ar      1 UNNAMED     0.0000 
     10 O          -2.2377    0.1452    1.0958 O.3       1 UNNAMED     0.0000 
     11 C8         -2.8160    1.3330    0.5204 C.3       1 UNNAMED     0.0000 
     12 C9         -2.1485    1.6678   -0.8453 C.3       1 UNNAMED     0.0000 
     13 C10        -2.2096    3.1885   -1.1230 C.3       1 UNNAMED     0.0000 
     14 N          -1.4320    3.9193   -0.0923 N.3       1 UNNAMED     0.0000 
     15 C11        -1.3395    3.2779    1.2412 C.3       1 UNNAMED     0.0000 
     16 C12        -2.6456    2.5014    1.5320 C.3       1 UNNAMED     0.0000 
     17 C13         0.0449   -0.9482   -0.5110 C.ar      1 UNNAMED     0.0000 
     18 O1          0.7647   -0.9746   -1.6245 O.3       1 UNNAMED     0.0000 
     19 C14         1.8157   -0.2828   -1.2487 C.ar      1 UNNAMED     0.0000 
     20 N1          1.8094    0.0831    0.0466 N.ar      1 UNNAMED     0.0000 
     21 N2          0.6490   -0.3446    0.5279 N.ar      1 UNNAMED     0.0000 
     22 C15         2.9457    0.0875   -2.2179 C.3       1 UNNAMED     0.0000 
     23 C16         2.3875    1.1781   -3.1621 C.ar      1 UNNAMED     0.0000 
     24 C17         4.1551    0.6752   -1.4397 C.3       1 UNNAMED     0.0000 
     25 C18         2.5728    1.1507   -4.5516 C.ar      1 UNNAMED     0.0000 
     26 C19         2.0301    2.1487   -5.3670 C.ar      1 UNNAMED     0.0000 
     27 C20         1.3066    3.2017   -4.8030 C.ar      1 UNNAMED     0.0000 
     28 C21         1.1318    3.2521   -3.4185 C.ar      1 UNNAMED     0.0000 
     29 C22         1.6649    2.2448   -2.6092 C.ar      1 UNNAMED     0.0000 
     30 C23         3.3816   -1.2237   -2.9331 C.3       1 UNNAMED     0.0000 
     31 H          -6.7340   -2.3941    1.0726 H         1 UNNAMED     0.0000 
     32 H1         -6.3942   -4.2362   -0.5474 H         1 UNNAMED     0.0000 
     33 H2         -4.1878   -4.5357   -1.6752 H         1 UNNAMED     0.0000 
     34 H3         -4.8789   -0.8143    1.5982 H         1 UNNAMED     0.0000 
     35 H4         -3.8984    1.1709    0.3754 H         1 UNNAMED     0.0000 
     36 H5         -1.0819    1.4007   -0.8233 H         1 UNNAMED     0.0000 
     37 H6         -2.6266    1.0940   -1.6563 H         1 UNNAMED     0.0000 
     38 H7         -3.2570    3.5276   -1.0830 H         1 UNNAMED     0.0000 
     39 H8         -1.8313    3.4030   -2.1373 H         1 UNNAMED     0.0000 
     40 H9         -0.4444    4.1857   -0.4534 H         1 UNNAMED     0.0000 
     41 H10        -1.1961    4.0689    1.9955 H         1 UNNAMED     0.0000 
     42 H11        -0.4838    2.5830    1.3038 H         1 UNNAMED     0.0000 
     43 H12        -3.4799    3.2171    1.4414 H         1 UNNAMED     0.0000 
     44 H13        -2.6490    2.1089    2.5621 H         1 UNNAMED     0.0000 
     45 H14         4.9554    0.9538   -2.1423 H         1 UNNAMED     0.0000 
     46 H15         3.8640    1.5736   -0.8748 H         1 UNNAMED     0.0000 
     47 H16         4.5520   -0.0666   -0.7295 H         1 UNNAMED     0.0000 
     48 H17         3.1398    0.3605   -5.0271 H         1 UNNAMED     0.0000 
     49 H18         2.1717    2.1065   -6.4430 H         1 UNNAMED     0.0000 
     50 H19         0.8842    3.9762   -5.4360 H         1 UNNAMED     0.0000 
     51 H20         0.5831    4.0758   -2.9725 H         1 UNNAMED     0.0000 
     52 H21         1.5098    2.3053   -1.5365 H         1 UNNAMED     0.0000 
     53 H22         4.2777   -1.0685   -3.5527 H         1 UNNAMED     0.0000 
     54 H23         2.5661   -1.6083   -3.5651 H         1 UNNAMED     0.0000 
     55 H24         3.6250   -1.9932   -2.1839 H         1 UNNAMED     0.0000 
@<TRIPOS>BOND
     1    1    2 ar   
     2    1    6 ar   
     3    1   31 1    
     4    2    3 ar   
     5    2   32 1    
     6    3    4 ar   
     7    3   33 1    
     8    4    5 ar   
     9    4    7 ar   
    10    5    6 ar   
    11    5    9 ar   
    12    6   34 1    
    13    7    8 ar   
    14    8    9 ar   
    15    8   17 1    
    16    9   10 1    
    17   10   11 1    
    18   11   12 1    
    19   11   16 1    
    20   11   35 1    
    21   12   13 1    
    22   12   36 1    
    23   12   37 1    
    24   13   14 1    
    25   13   38 1    
    26   13   39 1    
    27   14   15 1    
    28   14   40 1    
    29   15   16 1    
    30   15   41 1    
    31   15   42 1    
    32   16   43 1    
    33   16   44 1    
    34   17   18 ar   
    35   17   21 ar   
    36   18   19 ar   
    37   19   20 ar   
    38   19   22 1    
    39   20   21 ar   
    40   22   23 1    
    41   22   24 1    
    42   22   30 1    
    43   23   25 ar   
    44   23   29 ar   
    45   24   45 1    
    46   24   46 1    
    47   24   47 1    
    48   25   26 ar   
    49   25   48 1    
    50   26   27 ar   
    51   26   49 1    
    52   27   28 ar   
    53   27   50 1    
    54   28   29 ar   
    55   28   51 1    
    56   29   52 1    
    57   30   53 1    
    58   30   54 1    
    59   30   55 1    
@<TRIPOS>SUBSTRUCTURE
     1 UNNAMED     1 TEMP              0 ****  ****    0 ROOT 
@<TRIPOS>NORMAL
@<TRIPOS>FF_PBC
FORCE_FIELD_SETUP_FEATURE Force Field Setup information
v1.0  0 0.000000 0.000000 0.000000 0.000000 0.000000 0.000000 NONE 0 0 0 0 1 0 0 0 0 0 0 0 0
