#	Name:			2_34b
#	Creating user name:	Mariana
#	Creation time:		Wed Jan 11 13:54:14 2017

#	Modifying user name:	Mariana
#	Modification time:	Wed Jan 11 13:54:14 2017

@<TRIPOS>MOLECULE
2_34b
   51    55     1     1     0
SMALL
NO_CHARGES


@<TRIPOS>ATOM
      1 C          -5.7716   -2.5082    0.5825 C.ar      1 UNNAMED     0.0000 
      2 C1         -5.5768   -3.5532   -0.3313 C.ar      1 UNNAMED     0.0000 
      3 C2         -4.3430   -3.7252   -0.9699 C.ar      1 UNNAMED     0.0000 
      4 C3         -3.3194   -2.8235   -0.6751 C.ar      1 UNNAMED     0.0000 
      5 C4         -3.5156   -1.7771    0.2235 C.ar      1 UNNAMED     0.0000 
      6 C5         -4.7384   -1.6104    0.8757 C.ar      1 UNNAMED     0.0000 
      7 S          -1.7585   -2.9084   -1.3684 S.3       1 UNNAMED     0.0000 
      8 C6         -1.3182   -1.5245   -0.4622 C.ar      1 UNNAMED     0.0000 
      9 C7         -2.3509   -1.0124    0.3254 C.ar      1 UNNAMED     0.0000 
     10 O          -2.2378    0.1290    1.1166 O.3       1 UNNAMED     0.0000 
     11 C11        -2.7885    1.3282    0.5417 C.3       1 UNNAMED     0.0000 
     12 C12        -2.0562    1.7324   -0.7645 C.3       1 UNNAMED     0.0000 
     13 C13        -2.6095    3.0800   -1.2907 C.3       1 UNNAMED     0.0000 
     14 N14        -2.4722    4.1152   -0.2434 N.3       1 UNNAMED     0.0000 
     15 C15        -3.1749    3.7951    1.0179 C.3       1 UNNAMED     0.0000 
     16 C16        -2.6325    2.4604    1.5856 C.3       1 UNNAMED     0.0000 
     17 C13         0.0452   -0.9542   -0.5385 C.ar      1 UNNAMED     0.0000 
     18 O1          0.8559   -1.2768   -1.4918 O.3       1 UNNAMED     0.0000 
     19 C14         1.9130   -0.5851   -1.1763 C.ar      1 UNNAMED     0.0000 
     20 N1          1.7815    0.1760   -0.0769 N.ar      1 UNNAMED     0.0000 
     21 N2          0.5509   -0.0783    0.3484 N.ar      1 UNNAMED     0.0000 
     22 C15         3.2031   -0.6375   -1.9835 C.3       1 UNNAMED     0.0000 
     23 C16         4.2886   -1.3350   -1.1634 C.ar      1 UNNAMED     0.0000 
     24 C17         5.6201   -0.9636   -0.9973 C.ar      1 UNNAMED     0.0000 
     25 O2          6.3372   -1.7754   -0.2273 O.3       1 UNNAMED     0.0000 
     26 N3          5.3530   -2.7801    0.1501 N.ar      1 UNNAMED     0.0000 
     27 C18         4.1609   -2.4954   -0.4079 C.ar      1 UNNAMED     0.0000 
     28 C19         2.9106   -3.3491   -0.2090 C.3       1 UNNAMED     0.0000 
     29 C20         6.2488    0.2733   -1.6354 C.3       1 UNNAMED     0.0000 
     30 H1         -6.7352   -2.3935    1.0701 H         1 UNNAMED     0.0000 
     31 H2         -6.3916   -4.2380   -0.5465 H         1 UNNAMED     0.0000 
     32 H3         -4.1847   -4.5357   -1.6740 H         1 UNNAMED     0.0000 
     33 H4         -4.8819   -0.8083    1.5925 H         1 UNNAMED     0.0000 
     34 H5         -3.8619    1.1838    0.3309 H         1 UNNAMED     0.0000 
     35 H6         -2.1831    0.9565   -1.5365 H         1 UNNAMED     0.0000 
     36 H7         -0.9804    1.8454   -0.5570 H         1 UNNAMED     0.0000 
     37 H8         -3.6671    2.9663   -1.5837 H         1 UNNAMED     0.0000 
     38 H9         -2.0349    3.3819   -2.1828 H         1 UNNAMED     0.0000 
     39 H10        -2.7879    5.0825   -0.6202 H         1 UNNAMED     0.0000 
     40 H11        -4.2619    3.7194    0.8457 H         1 UNNAMED     0.0000 
     41 H12        -2.9965    4.5981    1.7529 H         1 UNNAMED     0.0000 
     42 H13        -3.1717    2.1911    2.5086 H         1 UNNAMED     0.0000 
     43 H14        -1.5642    2.5766    1.8312 H         1 UNNAMED     0.0000 
     44 H15         3.4880    0.3948   -2.2303 H         1 UNNAMED     0.0000 
     45 H16         3.0341   -1.1994   -2.9135 H         1 UNNAMED     0.0000 
     46 H17         2.2307   -2.8451    0.4939 H         1 UNNAMED     0.0000 
     47 H18         3.1971   -4.3266    0.2058 H         1 UNNAMED     0.0000 
     48 H19         2.4007   -3.5024   -1.1713 H         1 UNNAMED     0.0000 
     49 H20         6.0974    0.2505   -2.7246 H         1 UNNAMED     0.0000 
     50 H21         7.3284    0.2895   -1.4239 H         1 UNNAMED     0.0000 
     51 H22         5.7875    1.1793   -1.2155 H         1 UNNAMED     0.0000 
@<TRIPOS>BOND
     1    1    2 ar   
     2    6    1 ar   
     3   10   11 1    
     4    3    2 ar   
     5   11   12 1    
     6    4    3 ar   
     7   12   13 1    
     8    5    4 ar   
     9    7    4 ar   
    10    5    6 ar   
    11    9    5 ar   
    12   13   14 1    
    13    8    7 ar   
    14    9    8 ar   
    15    8   17 1    
    16    9   10 1    
    17   14   15 1    
    18   15   16 1    
    19   11   16 1    
    20    1   30 1    
    21    2   31 1    
    22    3   32 1    
    23    6   33 1    
    24   11   34 1    
    25   12   35 1    
    26   12   36 1    
    27   13   37 1    
    28   13   38 1    
    29   14   39 1    
    30   15   40 1    
    31   15   41 1    
    32   16   42 1    
    33   16   43 1    
    34   17   18 ar   
    35   17   21 ar   
    36   18   19 ar   
    37   19   20 ar   
    38   19   22 1    
    39   21   20 ar   
    40   22   23 1    
    41   22   44 1    
    42   22   45 1    
    43   23   24 ar   
    44   23   27 ar   
    45   24   25 ar   
    46   24   29 1    
    47   25   26 ar   
    48   27   26 ar   
    49   27   28 1    
    50   28   46 1    
    51   28   47 1    
    52   28   48 1    
    53   29   49 1    
    54   29   50 1    
    55   29   51 1    
@<TRIPOS>SUBSTRUCTURE
     1 UNNAMED     1 TEMP              0 ****  ****    0 ROOT 
@<TRIPOS>NORMAL
@<TRIPOS>FF_PBC
FORCE_FIELD_SETUP_FEATURE Force Field Setup information
v1.0  0 0.000000 0.000000 0.000000 0.000000 0.000000 0.000000 NONE 0 0 0 0 1 0 0 0 0 0 0 0 0
