#	Name:			2_34a
#	Creating user name:	Mariana
#	Creation time:		Wed Jan 11 13:53:59 2017

#	Modifying user name:	Mariana
#	Modification time:	Wed Jan 11 13:53:59 2017

@<TRIPOS>MOLECULE
2_34a
   52    56     1     1     0
SMALL
NO_CHARGES


@<TRIPOS>ATOM
      1 C          -5.7710   -2.5068    0.5837 C.ar      1 UNNAMED     0.0000 
      2 C1         -5.5817   -3.5528   -0.3298 C.ar      1 UNNAMED     0.0000 
      3 C2         -4.3494   -3.7286   -0.9701 C.ar      1 UNNAMED     0.0000 
      4 C3         -3.3221   -2.8300   -0.6788 C.ar      1 UNNAMED     0.0000 
      5 C4         -3.5123   -1.7804    0.2192 C.ar      1 UNNAMED     0.0000 
      6 C5         -4.7339   -1.6124    0.8739 C.ar      1 UNNAMED     0.0000 
      7 S          -1.7579   -2.9254   -1.3798 S.3       1 UNNAMED     0.0000 
      8 C6         -1.3118   -1.5148   -0.4554 C.ar      1 UNNAMED     0.0000 
      9 C7         -2.3517   -1.0088    0.3260 C.ar      1 UNNAMED     0.0000 
     10 O          -2.2491    0.1342    1.1164 O.3       1 UNNAMED     0.0000 
     11 C11        -2.8073    1.3290    0.5388 C.3       1 UNNAMED     0.0000 
     12 C12        -2.0740    1.7385   -0.7652 C.3       1 UNNAMED     0.0000 
     13 C13        -2.6371    3.0808   -1.2943 C.3       1 UNNAMED     0.0000 
     14 N14        -2.5122    4.1179   -0.2474 N.3       1 UNNAMED     0.0000 
     15 C15        -3.2163    3.7927    1.0118 C.3       1 UNNAMED     0.0000 
     16 C16        -2.6644    2.4631    1.5823 C.3       1 UNNAMED     0.0000 
     17 C13         0.0513   -0.9436   -0.5275 C.ar      1 UNNAMED     0.0000 
     18 O1          0.8963   -1.2978   -1.4801 O.3       1 UNNAMED     0.0000 
     19 C14         1.9259   -0.5954   -1.1741 C.ar      1 UNNAMED     0.0000 
     20 N1          1.7813    0.1949   -0.0957 N.ar      1 UNNAMED     0.0000 
     21 N3          0.5492   -0.0411    0.3361 N.ar      1 UNNAMED     0.0000 
     22 C15         3.2187   -0.6571   -1.9743 C.3       1 UNNAMED     0.0000 
     23 C16         3.8581   -2.0181   -1.7128 C.ar      1 UNNAMED     0.0000 
     24 C17         3.7544   -3.1845   -2.4617 C.ar      1 UNNAMED     0.0000 
     25 N25         5.0660   -3.6685   -0.7609 N.ar      1 UNNAMED     0.0000 
     26 N26         4.5690   -4.2110   -1.9663 N.3       1 UNNAMED     0.0000 
     27 C18         4.6844   -2.3778   -0.6504 C.ar      1 UNNAMED     0.0000 
     28 C19         5.1119   -1.4766    0.5042 C.3       1 UNNAMED     0.0000 
     29 C20         2.8475   -3.3422   -3.6815 C.3       1 UNNAMED     0.0000 
     30 H1         -6.7330   -2.3886    1.0734 H         1 UNNAMED     0.0000 
     31 H2         -6.3991   -4.2351   -0.5431 H         1 UNNAMED     0.0000 
     32 H3         -4.1949   -4.5403   -1.6737 H         1 UNNAMED     0.0000 
     33 H4         -4.8743   -0.8107    1.5916 H         1 UNNAMED     0.0000 
     34 H5         -3.8787    1.1764    0.3239 H         1 UNNAMED     0.0000 
     35 H6         -2.1911    0.9608   -1.5369 H         1 UNNAMED     0.0000 
     36 H7         -1.0000    1.8615   -0.5541 H         1 UNNAMED     0.0000 
     37 H8         -3.6927    2.9578   -1.5908 H         1 UNNAMED     0.0000 
     38 H9         -2.0621    3.3870   -2.1847 H         1 UNNAMED     0.0000 
     39 H10        -2.8349    5.0823   -0.6259 H         1 UNNAMED     0.0000 
     40 H11        -4.3021    3.7077    0.8361 H         1 UNNAMED     0.0000 
     41 H12        -3.0473    4.5978    1.7468 H         1 UNNAMED     0.0000 
     42 H13        -3.2044    2.1898    2.5038 H         1 UNNAMED     0.0000 
     43 H14        -1.5980    2.5885    1.8315 H         1 UNNAMED     0.0000 
     44 H15         3.8926    0.1489   -1.6494 H         1 UNNAMED     0.0000 
     45 H16         2.9914   -0.5251   -3.0414 H         1 UNNAMED     0.0000 
     46 H17         4.0092   -5.1195   -1.7927 H         1 UNNAMED     0.0000 
     47 H18         5.8092   -0.7111    0.1341 H         1 UNNAMED     0.0000 
     48 H19         5.6114   -2.0806    1.2760 H         1 UNNAMED     0.0000 
     49 H20         4.2275   -0.9898    0.9419 H         1 UNNAMED     0.0000 
     50 H21         1.8204   -3.0456   -3.4219 H         1 UNNAMED     0.0000 
     51 H22         2.8456   -4.3907   -4.0137 H         1 UNNAMED     0.0000 
     52 H23         3.2183   -2.7084   -4.5002 H         1 UNNAMED     0.0000 
@<TRIPOS>BOND
     1    1    2 ar   
     2    6    1 ar   
     3   10   11 1    
     4    3    2 ar   
     5   11   12 1    
     6    4    3 ar   
     7   12   13 1    
     8    5    4 ar   
     9    7    4 ar   
    10    5    6 ar   
    11    9    5 ar   
    12   13   14 1    
    13    8    7 ar   
    14    9    8 ar   
    15    8   17 1    
    16    9   10 1    
    17   14   15 1    
    18   15   16 1    
    19   11   16 1    
    20    1   30 1    
    21    2   31 1    
    22    3   32 1    
    23    6   33 1    
    24   11   34 1    
    25   12   35 1    
    26   12   36 1    
    27   13   37 1    
    28   13   38 1    
    29   14   39 1    
    30   15   40 1    
    31   15   41 1    
    32   16   42 1    
    33   16   43 1    
    34   17   18 ar   
    35   17   21 ar   
    36   18   19 ar   
    37   19   20 ar   
    38   19   22 1    
    39   21   20 ar   
    40   22   23 1    
    41   22   44 1    
    42   22   45 1    
    43   23   24 ar   
    44   23   27 ar   
    45   27   25 ar   
    46   24   29 1    
    47   25   26 ar   
    48   26   46 1    
    49   24   26 ar   
    50   27   28 1    
    51   28   47 1    
    52   28   48 1    
    53   28   49 1    
    54   29   50 1    
    55   29   51 1    
    56   29   52 1    
@<TRIPOS>SUBSTRUCTURE
     1 UNNAMED     1 TEMP              0 ****  ****    0 ROOT 
@<TRIPOS>NORMAL
@<TRIPOS>FF_PBC
FORCE_FIELD_SETUP_FEATURE Force Field Setup information
v1.0  0 0.000000 0.000000 0.000000 0.000000 0.000000 0.000000 NONE 0 0 0 0 1 0 0 0 0 0 0 0 0
