#	Name:			2_34c
#	Creating user name:	Mariana
#	Creation time:		Wed Jan 11 13:54:30 2017

#	Modifying user name:	Mariana
#	Modification time:	Wed Jan 11 13:54:30 2017

@<TRIPOS>MOLECULE
2_34c
   55    59     1     1     0
SMALL
NO_CHARGES


@<TRIPOS>ATOM
      1 C          -5.7713   -2.5114    0.5845 C.ar      1 UNNAMED     0.0000 
      2 C1         -5.5783   -3.5513   -0.3351 C.ar      1 UNNAMED     0.0000 
      3 C2         -4.3434   -3.7231   -0.9711 C.ar      1 UNNAMED     0.0000 
      4 C3         -3.3193   -2.8230   -0.6728 C.ar      1 UNNAMED     0.0000 
      5 C4         -3.5164   -1.7732    0.2221 C.ar      1 UNNAMED     0.0000 
      6 C5         -4.7365   -1.6171    0.8830 C.ar      1 UNNAMED     0.0000 
      7 S          -1.7567   -2.9170   -1.3565 S.3       1 UNNAMED     0.0000 
      8 C6         -1.3143   -1.5339   -0.4532 C.ar      1 UNNAMED     0.0000 
      9 C7         -2.3544   -1.0016    0.3113 C.ar      1 UNNAMED     0.0000 
     10 O          -2.2450    0.1634    1.0692 O.3       1 UNNAMED     0.0000 
     11 C11        -2.8983    1.3178    0.5078 C.3       1 UNNAMED     0.0000 
     12 C12        -2.3176    1.6874   -0.8875 C.3       1 UNNAMED     0.0000 
     13 C13        -2.4749    3.2051   -1.1892 C.3       1 UNNAMED     0.0000 
     14 N14        -3.6627    3.7498   -0.5023 N.3       1 UNNAMED     0.0000 
     15 C15        -3.5832    3.7030    0.9793 C.3       1 UNNAMED     0.0000 
     16 C16        -2.7191    2.5089    1.4764 C.3       1 UNNAMED     0.0000 
     17 C13         0.0607   -0.9869   -0.5043 C.ar      1 UNNAMED     0.0000 
     18 O1          0.9619   -1.4438   -1.3754 O.3       1 UNNAMED     0.0000 
     19 C14         2.0004   -0.6918   -1.0568 C.ar      1 UNNAMED     0.0000 
     20 N1          1.7786    0.2042   -0.0809 N.ar      1 UNNAMED     0.0000 
     21 N2          0.5248   -0.0094    0.2957 N.ar      1 UNNAMED     0.0000 
     22 C15         3.3607   -0.8369   -1.7189 C.3       1 UNNAMED     0.0000 
     23 C16         4.4220   -0.4196   -0.6987 C.ar      1 UNNAMED     0.0000 
     24 C17         4.5228   -0.8277    0.6306 C.ar      1 UNNAMED     0.0000 
     25 N3          5.5865   -0.2029    1.1774 N.ar      1 UNNAMED     0.0000 
     26 N4          6.1833    0.5637    0.2627 N.ar      1 UNNAMED     0.0000 
     27 C18         5.4893    0.4565   -0.8873 C.ar      1 UNNAMED     0.0000 
     28 C19         5.8650    1.2054   -2.1650 C.3       1 UNNAMED     0.0000 
     29 C20         3.6180   -1.8077    1.3830 C.3       1 UNNAMED     0.0000 
     30 C21         6.0663   -0.3263    2.5709 C.3       1 UNNAMED     0.0000 
     31 H1         -6.7346   -2.3982    1.0729 H         1 UNNAMED     0.0000 
     32 H2         -6.3948   -4.2323   -0.5561 H         1 UNNAMED     0.0000 
     33 H3         -4.1848   -4.5326   -1.6764 H         1 UNNAMED     0.0000 
     34 H4         -4.8793   -0.8277    1.6132 H         1 UNNAMED     0.0000 
     35 H5         -3.9818    1.1283    0.4237 H         1 UNNAMED     0.0000 
     36 H6         -2.8344    1.0845   -1.6528 H         1 UNNAMED     0.0000 
     37 H7         -1.2459    1.4410   -0.9332 H         1 UNNAMED     0.0000 
     38 H8         -2.5444    3.3805   -2.2758 H         1 UNNAMED     0.0000 
     39 H9         -1.5988    3.7675   -0.8242 H         1 UNNAMED     0.0000 
     40 H10        -4.5634    3.2687   -0.8691 H         1 UNNAMED     0.0000 
     41 H11        -4.6003    3.6285    1.4027 H         1 UNNAMED     0.0000 
     42 H12        -3.1463    4.6485    1.3394 H         1 UNNAMED     0.0000 
     43 H13        -3.0146    2.2221    2.4992 H         1 UNNAMED     0.0000 
     44 H14        -1.6494    2.7745    1.4985 H         1 UNNAMED     0.0000 
     45 H15         3.3716   -0.1942   -2.6106 H         1 UNNAMED     0.0000 
     46 H16         3.5105   -1.8842   -2.0195 H         1 UNNAMED     0.0000 
     47 H17         5.9988    0.4928   -2.9924 H         1 UNNAMED     0.0000 
     48 H18         6.8066    1.7531   -2.0082 H         1 UNNAMED     0.0000 
     49 H19         5.0716    1.9233   -2.4210 H         1 UNNAMED     0.0000 
     50 H20         2.8635   -1.2406    1.9486 H         1 UNNAMED     0.0000 
     51 H21         4.2144   -2.4101    2.0834 H         1 UNNAMED     0.0000 
     52 H22         3.1098   -2.4901    0.6864 H         1 UNNAMED     0.0000 
     53 H23         6.5213   -1.3166    2.7230 H         1 UNNAMED     0.0000 
     54 H24         5.2318   -0.1939    3.2763 H         1 UNNAMED     0.0000 
     55 H25         6.8239    0.4464    2.7730 H         1 UNNAMED     0.0000 
@<TRIPOS>BOND
     1    1    2 ar   
     2    6    1 ar   
     3   10   11 1    
     4    3    2 ar   
     5   11   12 1    
     6    4    3 ar   
     7   12   13 1    
     8    5    4 ar   
     9    7    4 ar   
    10    5    6 ar   
    11    9    5 ar   
    12   13   14 1    
    13    8    7 ar   
    14    9    8 ar   
    15    8   17 1    
    16    9   10 1    
    17   14   15 1    
    18   15   16 1    
    19   11   16 1    
    20    1   31 1    
    21    2   32 1    
    22    3   33 1    
    23    6   34 1    
    24   11   35 1    
    25   12   36 1    
    26   12   37 1    
    27   13   38 1    
    28   13   39 1    
    29   14   40 1    
    30   15   41 1    
    31   15   42 1    
    32   16   43 1    
    33   16   44 1    
    34   17   18 ar   
    35   17   21 ar   
    36   18   19 ar   
    37   19   20 ar   
    38   19   22 1    
    39   21   20 ar   
    40   22   23 1    
    41   22   45 1    
    42   22   46 1    
    43   23   24 ar   
    44   23   27 ar   
    45   24   25 ar   
    46   24   29 1    
    47   25   26 ar   
    48   25   30 1    
    49   27   26 ar   
    50   27   28 1    
    51   28   47 1    
    52   28   48 1    
    53   28   49 1    
    54   29   50 1    
    55   29   51 1    
    56   29   52 1    
    57   30   53 1    
    58   30   54 1    
    59   30   55 1    
@<TRIPOS>SUBSTRUCTURE
     1 UNNAMED     1 TEMP              0 ****  ****    0 ROOT 
@<TRIPOS>NORMAL
@<TRIPOS>FF_PBC
FORCE_FIELD_SETUP_FEATURE Force Field Setup information
v1.0  0 0.000000 0.000000 0.000000 0.000000 0.000000 0.000000 NONE 0 0 0 0 1 0 0 0 0 0 0 0 0
