#	Name:			2_35a
#	Creating user name:	Mariana
#	Creation time:		Wed Jan 11 13:54:51 2017

#	Modifying user name:	Mariana
#	Modification time:	Wed Jan 11 13:54:51 2017

@<TRIPOS>MOLECULE
2_35a
   55    59     1     1     0
SMALL
NO_CHARGES


@<TRIPOS>ATOM
      1 C          -5.7687   -2.5059    0.5845 C.ar      1 UNNAMED     0.0000 
      2 C1         -5.5761   -3.5529   -0.3271 C.ar      1 UNNAMED     0.0000 
      3 C2         -4.3446   -3.7254   -0.9702 C.ar      1 UNNAMED     0.0000 
      4 C3         -3.3158   -2.8263   -0.6835 C.ar      1 UNNAMED     0.0000 
      5 C4         -3.5114   -1.7807    0.2192 C.ar      1 UNNAMED     0.0000 
      6 C5         -4.7336   -1.6085    0.8706 C.ar      1 UNNAMED     0.0000 
      7 S          -1.8160   -2.9199   -1.3707 S.3       1 UNNAMED     0.0000 
      8 C6         -1.3296   -1.5267   -0.4579 C.ar      1 UNNAMED     0.0000 
      9 C7         -2.3542   -1.0082    0.3330 C.ar      1 UNNAMED     0.0000 
     10 O          -2.2477    0.1275    1.1348 O.3       1 UNNAMED     0.0000 
     11 C11        -2.2084    1.3943    0.4472 C.3       1 UNNAMED     0.0000 
     12 C12        -1.8650    2.4674    1.5180 C.3       1 UNNAMED     0.0000 
     13 C13        -2.4397    3.8486    1.1211 C.3       1 UNNAMED     0.0000 
     14 N14        -3.9198    3.7822    1.0481 N.3       1 UNNAMED     0.0000 
     15 C15        -4.5054    2.4667    0.6968 C.3       1 UNNAMED     0.0000 
     16 C16        -3.5546    1.7172   -0.2658 C.3       1 UNNAMED     0.0000 
     17 C13         0.0469   -0.9888   -0.5431 C.ar      1 UNNAMED     0.0000 
     18 O1          0.9457   -1.4132   -1.5637 O.3       1 UNNAMED     0.0000 
     19 C14         2.1083   -0.5236   -1.1099 C.ar      1 UNNAMED     0.0000 
     20 N1          1.8107    0.2212   -0.0321 N.ar      1 UNNAMED     0.0000 
     21 N2          0.5603   -0.0784    0.3088 N.ar      1 UNNAMED     0.0000 
     22 C15         3.4629   -0.4860   -1.8069 C.3       1 UNNAMED     0.0000 
     23 C16         4.5124   -1.2298   -0.9465 C.3       1 UNNAMED     0.0000 
     24 C17         5.8750   -1.1889   -1.6396 C.ar      1 UNNAMED     0.0000 
     25 C18         6.3943   -2.0814   -2.5746 C.ar      1 UNNAMED     0.0000 
     26 N3          7.6195   -1.6783   -2.9755 N.ar      1 UNNAMED     0.0000 
     27 N4          8.0262   -0.5925   -2.2548 N.3       1 UNNAMED     0.0000 
     28 C19         6.8980   -0.2591   -1.4984 C.ar      1 UNNAMED     0.0000 
     29 C20         6.8128    0.9909   -0.6236 C.3       1 UNNAMED     0.0000 
     30 C21         5.7181   -3.3424   -3.1051 C.3       1 UNNAMED     0.0000 
     31 H1         -6.7305   -2.3891    1.0748 H         1 UNNAMED     0.0000 
     32 H2         -6.3911   -4.2390   -0.5372 H         1 UNNAMED     0.0000 
     33 H3         -4.1932   -4.5377   -1.6742 H         1 UNNAMED     0.0000 
     34 H4         -4.8735   -0.7995    1.5801 H         1 UNNAMED     0.0000 
     35 H5         -1.4114    1.3844   -0.3166 H         1 UNNAMED     0.0000 
     36 H6         -0.7729    2.5179    1.6636 H         1 UNNAMED     0.0000 
     37 H7         -2.3181    2.1894    2.4835 H         1 UNNAMED     0.0000 
     38 H8         -2.0494    4.1371    0.1323 H         1 UNNAMED     0.0000 
     39 H9         -2.1105    4.6157    1.8436 H         1 UNNAMED     0.0000 
     40 H10        -4.3797    4.1750    1.9492 H         1 UNNAMED     0.0000 
     41 H11        -5.4772    2.6421    0.2066 H         1 UNNAMED     0.0000 
     42 H12        -4.6777    1.8460    1.5925 H         1 UNNAMED     0.0000 
     43 H13        -3.3774    2.3817   -1.1280 H         1 UNNAMED     0.0000 
     44 H14        -4.0303    0.8023   -0.6498 H         1 UNNAMED     0.0000 
     45 H15         3.7494    0.5670   -1.9486 H         1 UNNAMED     0.0000 
     46 H16         3.3595   -0.9612   -2.7941 H         1 UNNAMED     0.0000 
     47 H17         4.2086   -2.2791   -0.8060 H         1 UNNAMED     0.0000 
     48 H18         4.5898   -0.7590    0.0460 H         1 UNNAMED     0.0000 
     49 H19         8.3345    0.2204   -2.8973 H         1 UNNAMED     0.0000 
     50 H20         7.7223    1.5968   -0.7488 H         1 UNNAMED     0.0000 
     51 H21         6.7241    0.6952    0.4320 H         1 UNNAMED     0.0000 
     52 H22         5.9382    1.5921   -0.9115 H         1 UNNAMED     0.0000 
     53 H23         4.7316   -3.0928   -3.5214 H         1 UNNAMED     0.0000 
     54 H24         5.6004   -4.0670   -2.2863 H         1 UNNAMED     0.0000 
     55 H25         6.3416   -3.7871   -3.8947 H         1 UNNAMED     0.0000 
@<TRIPOS>BOND
     1    1    2 ar   
     2    6    1 ar   
     3   10   11 1    
     4    3    2 ar   
     5   11   12 1    
     6    4    3 ar   
     7   12   13 1    
     8    5    4 ar   
     9    7    4 ar   
    10    5    6 ar   
    11    9    5 ar   
    12   13   14 1    
    13    8    7 ar   
    14    9    8 ar   
    15    8   17 1    
    16    9   10 1    
    17   14   15 1    
    18   15   16 1    
    19   11   16 1    
    20    1   31 1    
    21    2   32 1    
    22    3   33 1    
    23    6   34 1    
    24   11   35 1    
    25   12   36 1    
    26   12   37 1    
    27   13   38 1    
    28   13   39 1    
    29   14   40 1    
    30   15   41 1    
    31   15   42 1    
    32   16   43 1    
    33   16   44 1    
    34   17   18 ar   
    35   17   21 ar   
    36   18   19 ar   
    37   19   20 ar   
    38   19   22 1    
    39   21   20 ar   
    40   22   23 1    
    41   22   45 1    
    42   22   46 1    
    43   23   24 1    
    44   23   47 1    
    45   23   48 1    
    46   24   25 ar   
    47   24   28 ar   
    48   25   26 ar   
    49   25   30 1    
    50   26   27 ar   
    51   28   27 ar   
    52   27   49 1    
    53   28   29 1    
    54   29   50 1    
    55   29   51 1    
    56   29   52 1    
    57   30   53 1    
    58   30   54 1    
    59   30   55 1    
@<TRIPOS>SUBSTRUCTURE
     1 UNNAMED     1 TEMP              0 ****  ****    0 ROOT 
@<TRIPOS>NORMAL
@<TRIPOS>FF_PBC
FORCE_FIELD_SETUP_FEATURE Force Field Setup information
v1.0  0 0.000000 0.000000 0.000000 0.000000 0.000000 0.000000 NONE 0 0 0 0 1 0 0 0 0 0 0 0 0
