#	Name:			2_35b
#	Creating user name:	Mariana
#	Creation time:		Wed Jan 11 13:55:05 2017

#	Modifying user name:	Mariana
#	Modification time:	Wed Jan 11 13:55:05 2017

@<TRIPOS>MOLECULE
2_35b
   54    58     1     1     0
SMALL
NO_CHARGES


@<TRIPOS>ATOM
      1 C          -5.7657   -2.4984    0.5923 C.ar      1 UNNAMED     0.0000 
      2 C1         -5.6159   -3.5461   -0.3243 C.ar      1 UNNAMED     0.0000 
      3 C2         -4.3930   -3.7489   -0.9718 C.ar      1 UNNAMED     0.0000 
      4 C3         -3.3383   -2.8761   -0.6984 C.ar      1 UNNAMED     0.0000 
      5 C4         -3.4903   -1.8005    0.1889 C.ar      1 UNNAMED     0.0000 
      6 C5         -4.7013   -1.6324    0.8668 C.ar      1 UNNAMED     0.0000 
      7 S          -1.7491   -3.0603   -1.4365 S.3       1 UNNAMED     0.0000 
      8 C6         -1.2694   -1.4550   -0.4050 C.ar      1 UNNAMED     0.0000 
      9 C7         -2.3600   -0.9773    0.3202 C.ar      1 UNNAMED     0.0000 
     10 O          -2.3313    0.1805    1.1005 O.3       1 UNNAMED     0.0000 
     11 C8         -3.0179    1.3365    0.5739 C.3       1 UNNAMED     0.0000 
     12 C9         -2.3137    1.9419   -0.6746 C.3       1 UNNAMED     0.0000 
     13 C10        -1.1504    2.8928   -0.2703 C.3       1 UNNAMED     0.0000 
     14 N          -0.6369    2.5073    1.0599 N.3       1 UNNAMED     0.0000 
     15 C11        -1.6006    2.6871    2.1699 C.3       1 UNNAMED     0.0000 
     16 C12        -3.0522    2.3998    1.6977 C.3       1 UNNAMED     0.0000 
     17 C13         0.0968   -0.8900   -0.4334 C.ar      1 UNNAMED     0.0000 
     18 O1          1.1949   -1.6236    0.0304 O.3       1 UNNAMED     0.0000 
     19 C14         2.1675   -0.6067   -0.0980 C.ar      1 UNNAMED     0.0000 
     20 N1          1.7180    0.5175   -0.6824 N.ar      1 UNNAMED     0.0000 
     21 N2          0.4169    0.3367   -0.8842 N.ar      1 UNNAMED     0.0000 
     22 C15         3.5958   -0.7690    0.4050 C.3       1 UNNAMED     0.0000 
     23 C16         3.6110   -0.6402    1.9490 C.3       1 UNNAMED     0.0000 
     24 C17         2.6955   -1.6948    2.5793 C.ar      1 UNNAMED     0.0000 
     25 C18         3.0027   -3.0223    2.8592 C.ar      1 UNNAMED     0.0000 
     26 N3          1.9262   -3.6248    3.4016 N.ar      1 UNNAMED     0.0000 
     27 O2          0.8327   -2.7167    3.5192 O.3       1 UNNAMED     0.0000 
     28 C19         1.3770   -1.5656    3.0081 C.ar      1 UNNAMED     0.0000 
     29 C20         0.5545   -0.2795    2.9433 C.3       1 UNNAMED     0.0000 
     30 C21         4.3289   -3.7386    2.6173 C.3       1 UNNAMED     0.0000 
     31 H          -6.7170   -2.3574    1.0968 H         1 UNNAMED     0.0000 
     32 H1         -6.4526   -4.2062   -0.5324 H         1 UNNAMED     0.0000 
     33 H2         -4.2638   -4.5674   -1.6724 H         1 UNNAMED     0.0000 
     34 H3         -4.8186   -0.8454    1.6045 H         1 UNNAMED     0.0000 
     35 H4         -4.0532    1.0660    0.3045 H         1 UNNAMED     0.0000 
     36 H5         -1.9548    1.1206   -1.3119 H         1 UNNAMED     0.0000 
     37 H6         -3.0374    2.5197   -1.2742 H         1 UNNAMED     0.0000 
     38 H7         -1.5013    3.9376   -0.2124 H         1 UNNAMED     0.0000 
     39 H8         -0.3515    2.8516   -1.0301 H         1 UNNAMED     0.0000 
     40 H9          0.3069    2.9963    1.2756 H         1 UNNAMED     0.0000 
     41 H10        -1.5428    3.6993    2.6056 H         1 UNNAMED     0.0000 
     42 H11        -1.3193    1.9630    2.9508 H         1 UNNAMED     0.0000 
     43 H12        -3.5174    3.3180    1.3019 H         1 UNNAMED     0.0000 
     44 H13        -3.6638    2.0474    2.5448 H         1 UNNAMED     0.0000 
     45 H14         3.9585   -1.7579    0.0881 H         1 UNNAMED     0.0000 
     46 H15         4.2277    0.0059   -0.0562 H         1 UNNAMED     0.0000 
     47 H16         4.6360   -0.7796    2.3265 H         1 UNNAMED     0.0000 
     48 H17         3.2733    0.3651    2.2460 H         1 UNNAMED     0.0000 
     49 H18         0.8111    0.3530    3.8050 H         1 UNNAMED     0.0000 
     50 H19         0.7397    0.2796    2.0167 H         1 UNNAMED     0.0000 
     51 H20        -0.5131   -0.5394    2.9912 H         1 UNNAMED     0.0000 
     52 H21         4.2692   -4.7624    3.0153 H         1 UNNAMED     0.0000 
     53 H22         4.5367   -3.7846    1.5389 H         1 UNNAMED     0.0000 
     54 H23         5.1419   -3.2021    3.1277 H         1 UNNAMED     0.0000 
@<TRIPOS>BOND
     1    1    2 ar   
     2    1    6 ar   
     3    1   31 1    
     4    2    3 ar   
     5    2   32 1    
     6    3    4 ar   
     7    3   33 1    
     8    4    5 ar   
     9    4    7 ar   
    10    5    6 ar   
    11    5    9 ar   
    12    6   34 1    
    13    7    8 ar   
    14    8    9 ar   
    15    8   17 1    
    16    9   10 1    
    17   10   11 1    
    18   11   12 1    
    19   11   16 1    
    20   11   35 1    
    21   12   13 1    
    22   12   36 1    
    23   12   37 1    
    24   13   14 1    
    25   13   38 1    
    26   13   39 1    
    27   14   15 1    
    28   14   40 1    
    29   15   16 1    
    30   15   41 1    
    31   15   42 1    
    32   16   43 1    
    33   16   44 1    
    34   17   18 ar   
    35   17   21 ar   
    36   18   19 ar   
    37   19   20 ar   
    38   19   22 1    
    39   20   21 ar   
    40   22   23 1    
    41   22   45 1    
    42   22   46 1    
    43   23   24 1    
    44   23   47 1    
    45   23   48 1    
    46   24   25 ar   
    47   24   28 ar   
    48   25   26 ar   
    49   25   30 1    
    50   26   27 ar   
    51   27   28 ar   
    52   28   29 1    
    53   29   49 1    
    54   29   50 1    
    55   29   51 1    
    56   30   52 1    
    57   30   53 1    
    58   30   54 1    
@<TRIPOS>SUBSTRUCTURE
     1 UNNAMED     1 TEMP              0 ****  ****    0 ROOT 
@<TRIPOS>NORMAL
@<TRIPOS>FF_PBC
FORCE_FIELD_SETUP_FEATURE Force Field Setup information
v1.0  0 0.000000 0.000000 0.000000 0.000000 0.000000 0.000000 NONE 0 0 0 0 1 0 0 0 0 0 0 0 0
