#	Name:			2_35c
#	Creating user name:	Mariana
#	Creation time:		Wed Jan 11 13:55:29 2017

#	Modifying user name:	Mariana
#	Modification time:	Wed Jan 11 13:55:29 2017

@<TRIPOS>MOLECULE
2_35c
   58    62     1     1     0
SMALL
GAST_HUCK


@<TRIPOS>ATOM
      1 C          -5.7701   -2.5061    0.5851 C.ar      1 UNNAMED    -0.0678 
      2 C1         -5.5889   -3.5499   -0.3318 C.ar      1 UNNAMED    -0.0674 
      3 C2         -4.3569   -3.7315   -0.9704 C.ar      1 UNNAMED    -0.0449 
      4 C3         -3.3237   -2.8392   -0.6796 C.ar      1 UNNAMED     0.0484 
      5 C4         -3.5081   -1.7822    0.2135 C.ar      1 UNNAMED     0.0314 
      6 C5         -4.7268   -1.6197    0.8764 C.ar      1 UNNAMED    -0.0569 
      7 S          -1.7607   -2.9582   -1.3767 S.3       1 UNNAMED    -0.0251 
      8 C6         -1.3051   -1.5085   -0.4449 C.ar      1 UNNAMED     0.1227 
      9 C7         -2.3543   -0.9975    0.3203 C.ar      1 UNNAMED     0.1270 
     10 O          -2.2638    0.1525    1.1061 O.3       1 UNNAMED    -0.3102 
     11 C11        -2.9199    1.3361    0.6072 C.3       1 UNNAMED     0.0853 
     12 C12        -2.2321    1.9232   -0.6620 C.3       1 UNNAMED    -0.0091 
     13 C13        -1.1997    3.0144   -0.2846 C.3       1 UNNAMED    -0.0014 
     14 N14        -1.8768    4.1440    0.3964 N.3       1 UNNAMED    -0.3158 
     15 C15        -3.0624    3.8042    1.2176 C.3       1 UNNAMED    -0.0014 
     16 C16        -2.9237    2.3659    1.7705 C.3       1 UNNAMED    -0.0091 
     17 C13         0.0614   -0.9446   -0.5120 C.ar      1 UNNAMED     0.1744 
     18 O1          1.0636   -1.5832   -1.1710 O.3       1 UNNAMED    -0.2443 
     19 C14         2.0726   -0.6722   -0.9551 C.ar      1 UNNAMED     0.1701 
     20 N1          1.7181    0.3939   -0.2187 N.ar      1 UNNAMED    -0.2417 
     21 N2          0.4305    0.2209    0.0499 N.ar      1 UNNAMED    -0.2544 
     22 C15         3.4786   -0.8228   -1.5185 C.3       1 UNNAMED     0.0687 
     23 C16         3.6177    0.1611   -2.7078 C.3       1 UNNAMED     0.0769 
     24 C17         3.1193    1.5537   -2.2947 C.ar      1 UNNAMED     0.1544 
     25 C18         1.8983    2.1414   -2.6243 C.ar      1 UNNAMED     0.1896 
     26 N3          1.8391    3.3770   -2.0910 N.ar      1 UNNAMED    -0.0955 
     27 N4          2.9609    3.5769   -1.3981 N.ar      1 UNNAMED    -0.2074 
     28 C19         3.7664    2.5000   -1.5017 C.ar      1 UNNAMED     0.1626 
     29 C20         5.1388    2.3963   -0.8341 C.3       1 UNNAMED     0.0204 
     30 C21         0.7634    1.5324   -3.4467 C.3       1 UNNAMED     0.0228 
     31 C22         3.2424    4.8548   -0.6120 C.3       1 UNNAMED     0.0479 
     32 H1         -6.7306   -2.3839    1.0768 H         1 UNNAMED     0.0554 
     33 H2         -6.4109   -4.2255   -0.5485 H         1 UNNAMED     0.0603 
     34 H3         -4.2070   -4.5445   -1.6734 H         1 UNNAMED     0.0567 
     35 H4         -4.8628   -0.8283    1.6061 H         1 UNNAMED     0.0617 
     36 H5         -3.9659    1.0958    0.3489 H         1 UNNAMED     0.0657 
     37 H6         -2.9834    2.4128   -1.3041 H         1 UNNAMED     0.0307 
     38 H7         -1.7609    1.1268   -1.2564 H         1 UNNAMED     0.0307 
     39 H8         -0.6711    3.3653   -1.1863 H         1 UNNAMED     0.0425 
     40 H9         -0.4433    2.5971    0.3978 H         1 UNNAMED     0.0425 
     41 H10        -2.1081    4.9470   -0.2960 H         1 UNNAMED     0.1219 
     42 H11        -3.9960    3.8766    0.6335 H         1 UNNAMED     0.0425 
     43 H12        -3.1196    4.5237    2.0509 H         1 UNNAMED     0.0425 
     44 H13        -3.7379    2.1339    2.4773 H         1 UNNAMED     0.0307 
     45 H14        -1.9737    2.3063    2.3260 H         1 UNNAMED     0.0307 
     46 H15         3.6455   -1.8655   -1.8326 H         1 UNNAMED     0.0642 
     47 H16         4.1890   -0.5759   -0.7143 H         1 UNNAMED     0.0642 
     48 H17         3.0066   -0.2054   -3.5480 H         1 UNNAMED     0.0822 
     49 H18         4.6627    0.2126   -3.0521 H         1 UNNAMED     0.0822 
     50 H19         5.7373    1.5815   -1.2646 H         1 UNNAMED     0.0483 
     51 H20         4.9964    2.2090    0.2406 H         1 UNNAMED     0.0483 
     52 H21         5.6862    3.3411   -0.9664 H         1 UNNAMED     0.0483 
     53 H22         1.1082    1.3384   -4.4730 H         1 UNNAMED     0.0484 
     54 H23        -0.0853    2.2311   -3.4826 H         1 UNNAMED     0.0484 
     55 H24         0.4302    0.5911   -2.9860 H         1 UNNAMED     0.0484 
     56 H25         2.3284    5.4663   -0.5648 H         1 UNNAMED     0.0508 
     57 H26         4.0341    5.4335   -1.1106 H         1 UNNAMED     0.0508 
     58 H27         3.5573    4.6086    0.4133 H         1 UNNAMED     0.0508 
@<TRIPOS>BOND
     1    1    2 ar   
     2    6    1 ar   
     3   10   11 1    
     4    3    2 ar   
     5   11   12 1    
     6    4    3 ar   
     7   12   13 1    
     8    5    4 ar   
     9    7    4 ar   
    10    5    6 ar   
    11    9    5 ar   
    12   13   14 1    
    13    8    7 ar   
    14    9    8 ar   
    15    8   17 1    
    16    9   10 1    
    17   14   15 1    
    18   15   16 1    
    19   11   16 1    
    20    1   32 1    
    21    2   33 1    
    22    3   34 1    
    23    6   35 1    
    24   11   36 1    
    25   12   37 1    
    26   12   38 1    
    27   13   39 1    
    28   13   40 1    
    29   14   41 1    
    30   15   42 1    
    31   15   43 1    
    32   16   44 1    
    33   16   45 1    
    34   17   18 ar   
    35   17   21 ar   
    36   18   19 ar   
    37   19   20 ar   
    38   19   22 1    
    39   21   20 ar   
    40   22   23 1    
    41   22   46 1    
    42   22   47 1    
    43   23   24 1    
    44   23   48 1    
    45   23   49 1    
    46   24   25 ar   
    47   24   28 ar   
    48   25   26 ar   
    49   25   30 1    
    50   26   27 ar   
    51   28   27 ar   
    52   27   31 1    
    53   28   29 1    
    54   29   50 1    
    55   29   51 1    
    56   29   52 1    
    57   30   53 1    
    58   30   54 1    
    59   30   55 1    
    60   31   56 1    
    61   31   57 1    
    62   31   58 1    
@<TRIPOS>SUBSTRUCTURE
     1 UNNAMED     1 TEMP              0 ****  ****    0 ROOT 
@<TRIPOS>NORMAL
@<TRIPOS>FF_PBC
FORCE_FIELD_SETUP_FEATURE Force Field Setup information
v1.0  0 0.000000 0.000000 0.000000 0.000000 0.000000 0.000000 NONE 0 0 0 0 1 0 0 0 0 0 0 0 0
